REMARK  Name = ZINC69419311
REMARK  7 active torsions:
REMARK  status: ('A' for Active; 'I' for Inactive)
REMARK    1  A    between atoms: C1_1  and  C2_2
REMARK    2  A    between atoms: C2_2  and  C3_3
REMARK    3  A    between atoms: C2_2  and  N3_9
REMARK    4  A    between atoms: C3_3  and  N1_4
REMARK    5  A    between atoms: N3_9  and  C7_10
REMARK    6  A    between atoms: C7_10  and  C8_11
REMARK    7  A    between atoms: C11_16  and  C12_18
REMARK                            x       y       z     vdW  Elec       q    Type
REMARK                         _______ _______ _______ _____ _____    ______ ____
ROOT
ATOM      1  C   UNL     1      -3.464  -0.648  -1.224  0.00  0.00    +0.280 C 
ATOM      2  N   UNL     1      -4.277  -0.413  -2.272  0.00  0.00    -0.188 N 
ATOM      3  C   UNL     1      -5.675  -0.857  -2.389  0.00  0.00    +0.141 C 
ATOM      4  C   UNL     1      -6.112  -0.321  -3.766  0.00  0.00    +0.078 C 
ATOM      5  C   UNL     1      -4.881   0.386  -4.289  0.00  0.00    +0.068 C 
ATOM      6  N   UNL     1      -3.933   0.296  -3.422  0.00  0.00    -0.181 NA
ATOM      7  O   UNL     1      -3.870  -1.279  -0.271  0.00  0.00    -0.268 OA
ENDROOT
BRANCH   5   8
ATOM      8  C   UNL     1      -4.783   1.075  -5.589  0.00  0.00    -0.002 A 
ATOM      9  C   UNL     1      -5.885   1.116  -6.446  0.00  0.00    +0.010 A 
ATOM     10  C   UNL     1      -5.787   1.762  -7.661  0.00  0.00    +0.001 A 
ATOM     11  C   UNL     1      -4.599   2.369  -8.031  0.00  0.00    +0.000 A 
ATOM     12  C   UNL     1      -3.503   2.332  -7.187  0.00  0.00    +0.001 A 
ATOM     13  C   UNL     1      -3.590   1.694  -5.967  0.00  0.00    +0.010 A 
ENDBRANCH   5   8
BRANCH   1  14
ATOM     14  C   UNL     1      -2.050  -0.126  -1.234  0.00  0.00    +0.229 C 
BRANCH  14  15
ATOM     15  N   UNL     1      -1.376  -0.512   0.012  0.00  0.00    +0.237 N 
ATOM     16  H   UNL     1      -1.873  -0.121   0.799  0.00  0.00    +0.202 HD
ATOM     17  H   UNL     1      -1.363  -1.518   0.090  0.00  0.00    +0.202 HD
BRANCH  15  19
ATOM     18  C   UNL     1      -0.019   1.526   0.010  0.00  0.00    +0.065 C 
ATOM     19  C   UNL     1       0.002  -0.004   0.002  0.00  0.00    +0.082 C 
BRANCH  19  20
ATOM     20  C   UNL     1       0.742  -0.511   1.242  0.00  0.00    +0.197 C 
BRANCH  20  21
ATOM     21  N   UNL     1       0.866  -1.969   1.174  0.00  0.00    -0.266 N 
ATOM     22  C   UNL     1       2.015  -2.673   1.261  0.00  0.00    +0.108 A 
ATOM     23  C   UNL     1       1.703  -3.985   1.153  0.00  0.00    +0.041 A 
ATOM     24  C   UNL     1       0.317  -4.087   0.995  0.00  0.00    +0.134 A 
ATOM     25  N   UNL     1      -0.186  -2.879   1.013  0.00  0.00    -0.179 NA
ENDBRANCH  20  21
ENDBRANCH  19  20
ENDBRANCH  15  19
ENDBRANCH  14  15
ENDBRANCH   1  14
TORSDOF 6
