REMARK  Name = ZINC48088125
REMARK  7 active torsions:
REMARK  status: ('A' for Active; 'I' for Inactive)
REMARK    1  A    between atoms: C1_1  and  C2_2
REMARK    2  A    between atoms: C3_3  and  O4_21
REMARK    3  A    between atoms: C5_5  and  C9_10
REMARK    4  A    between atoms: C7_7  and  O1_8
REMARK    5  A    between atoms: O1_8  and  C8_9
REMARK    6  A    between atoms: C13_16  and  C15_18
REMARK    7  A    between atoms: O4_21  and  C16_22
REMARK                            x       y       z     vdW  Elec       q    Type
REMARK                         _______ _______ _______ _____ _____    ______ ____
ROOT
ATOM      1  C   UNL     1       0.058  -4.259  -0.021  0.00  0.00    +0.247 C 
ATOM      2  N   UNL     1       0.175  -4.938   1.137  0.00  0.00    -0.297 N 
ATOM      3  C   UNL     1       0.168  -4.229   2.424  0.00  0.00    +0.108 C 
ATOM      4  C   UNL     1       1.415  -4.632   3.216  0.00  0.00    +0.020 C 
ATOM      5  C   UNL     1       1.465  -6.157   3.339  0.00  0.00    +0.016 C 
ATOM      6  C   UNL     1       1.557  -6.780   1.944  0.00  0.00    +0.092 C 
ATOM      7  C   UNL     1       0.305  -6.401   1.137  0.00  0.00    +0.120 C 
ATOM      8  O   UNL     1      -0.009  -4.861  -1.075  0.00  0.00    -0.270 OA
ENDROOT
BRANCH   1  13
ATOM      9  C   UNL     1      -0.119   1.500   0.021  0.00  0.00    +0.051 C 
ATOM     10  C   UNL     1      -0.073  -0.006   0.010  0.00  0.00    +0.033 A 
ATOM     11  C   UNL     1      -0.921  -0.730   0.835  0.00  0.00    +0.127 A 
ATOM     12  C   UNL     1      -0.882  -2.115   0.828  0.00  0.00    +0.059 A 
ATOM     13  C   UNL     1       0.012  -2.781  -0.011  0.00  0.00    +0.044 A 
ATOM     14  C   UNL     1       0.863  -2.049  -0.839  0.00  0.00    +0.059 A 
ATOM     15  C   UNL     1       0.814  -0.664  -0.830  0.00  0.00    +0.127 A 
BRANCH  11  16
ATOM     16  O   UNL     1      -1.792  -0.080   1.651  0.00  0.00    -0.495 OA
ATOM     17  C   UNL     1      -2.636  -0.888   2.474  0.00  0.00    +0.277 C 
ENDBRANCH  11  16
BRANCH  15  18
ATOM     18  O   UNL     1       1.639   0.050  -1.640  0.00  0.00    -0.495 OA
ATOM     19  C   UNL     1       2.526  -0.692  -2.479  0.00  0.00    +0.277 C 
ENDBRANCH  15  18
ENDBRANCH   1  13
BRANCH   6  20
ATOM     20  C   UNL     1       1.639  -8.280   2.067  0.00  0.00    +0.215 C 
ATOM     21  N   UNL     1       1.728  -9.043   0.960  0.00  0.00    -0.329 N 
ATOM     22  H   UNL     1       1.781 -10.008   1.039  0.00  0.00    +0.145 HD
ATOM     23  H   UNL     1       1.738  -8.627   0.083  0.00  0.00    +0.145 HD
ATOM     24  O   UNL     1       1.627  -8.800   3.162  0.00  0.00    -0.276 OA
ENDBRANCH   6  20
TORSDOF 4
