REMARK  Name = ZINC65513427
REMARK  4 active torsions:
REMARK  status: ('A' for Active; 'I' for Inactive)
REMARK    1  A    between atoms: C1_1  and  C2_2
REMARK    2  A    between atoms: N1_4  and  C3_5
REMARK    3  A    between atoms: C10_15  and  C11_17
REMARK    4  A    between atoms: C13_19  and  C14_20
REMARK                            x       y       z     vdW  Elec       q    Type
REMARK                         _______ _______ _______ _____ _____    ______ ____
ROOT
ATOM      1  C   UNL     1      -0.074  -2.069  -1.226  0.00  0.00    +0.035 A 
ATOM      2  C   UNL     1      -0.159  -2.820  -0.056  0.00  0.00    +0.025 A 
ATOM      3  C   UNL     1      -0.232  -4.177  -0.085  0.00  0.00    +0.031 A 
ATOM      4  C   UNL     1      -0.224  -4.880  -1.312  0.00  0.00    +0.080 A 
ATOM      5  C   UNL     1      -0.137  -4.094  -2.483  0.00  0.00    +0.043 A 
ATOM      6  S   UNL     1      -0.156  -5.323  -3.766  0.00  0.00    -0.052 S 
ATOM      7  C   UNL     1      -0.274  -6.755  -2.704  0.00  0.00    +0.165 A 
ATOM      8  N   UNL     1      -0.334  -8.095  -3.054  0.00  0.00    -0.264 N 
ATOM      9  H   UNL     1      -0.313  -8.353  -3.989  0.00  0.00    +0.157 HD
ATOM     10  C   UNL     1      -0.420  -9.039  -2.096  0.00  0.00    +0.222 C 
ATOM     11  O   UNL     1      -0.446  -8.716  -0.927  0.00  0.00    -0.275 OA
ATOM     12  N   UNL     1      -0.289  -6.216  -1.508  0.00  0.00    -0.225 NA
ATOM     13  C   UNL     1      -0.070  -2.724  -2.451  0.00  0.00    +0.040 A 
ENDROOT
BRANCH   1  16
ATOM     14  C   UNL     1       0.685   1.512  -2.108  0.00  0.00    +0.109 C 
ATOM     15  C   UNL     1       0.702   0.005  -2.099  0.00  0.00    +0.214 C 
ATOM     16  N   UNL     1       0.000  -0.672  -1.169  0.00  0.00    -0.286 N 
ATOM     17  H   UNL     1      -0.454  -0.191  -0.459  0.00  0.00    +0.155 HD
ATOM     18  O   UNL     1       1.347  -0.599  -2.930  0.00  0.00    -0.276 OA
ENDBRANCH   1  16
BRANCH  10  19
ATOM     19  C   UNL     1      -0.486 -10.495  -2.477  0.00  0.00    +0.086 C 
ATOM     20  C   UNL     1       0.722 -11.370  -2.134  0.00  0.00    +0.025 C 
ATOM     21  C   UNL     1      -0.581 -11.518  -1.344  0.00  0.00    +0.068 C 
BRANCH  21  22
ATOM     22  C   UNL     1      -1.407 -12.755  -1.590  0.00  0.00    +0.109 A 
ATOM     23  C   UNL     1      -2.488 -13.132  -0.884  0.00  0.00    +0.045 A 
ATOM     24  C   UNL     1      -2.948 -14.341  -1.454  0.00  0.00    +0.041 A 
ATOM     25  C   UNL     1      -2.120 -14.631  -2.474  0.00  0.00    +0.195 A 
ATOM     26  O   UNL     1      -1.193 -13.663  -2.555  0.00  0.00    -0.468 OA
ENDBRANCH  21  22
ENDBRANCH  10  19
TORSDOF 3
