REMARK  Name = ZINC00284850
REMARK  4 active torsions:
REMARK  status: ('A' for Active; 'I' for Inactive)
REMARK    1  A    between atoms: C5_6  and  C6_7
REMARK    2  A    between atoms: C5_6  and  N1_11
REMARK    3  A    between atoms: C5_6  and  N2_17
REMARK    4  A    between atoms: C7_12  and  C8_14
REMARK                            x       y       z     vdW  Elec       q    Type
REMARK                         _______ _______ _______ _____ _____    ______ ____
ROOT
ATOM      1  C   UNL     1       2.918  -0.432   2.348  0.00  0.00    +0.209 C 
ENDROOT
BRANCH   1   3
ATOM      2  C   UNL     1       2.987   0.298   0.039  0.00  0.00    +0.162 C 
ATOM      3  N   UNL     1       2.122   0.104   1.222  0.00  0.00    +0.257 N 
ATOM      4  H   UNL     1       1.723   1.010   1.497  0.00  0.00    +0.206 HD
ATOM      5  C   UNL     1       1.022  -0.826   0.893  0.00  0.00    +0.162 C 
ATOM      6  C   UNL     1       0.198  -0.226  -0.250  0.00  0.00    +0.210 C 
ATOM      7  O   UNL     1       1.051   0.008  -1.374  0.00  0.00    -0.369 OA
ATOM      8  C   UNL     1       2.144   0.887  -1.095  0.00  0.00    +0.210 C 
ENDBRANCH   1   3
BRANCH   1   9
ATOM      9  N   UNL     1       4.321  -0.044   2.184  0.00  0.00    -0.269 N 
ATOM     10  H   UNL     1       4.595   0.871   2.353  0.00  0.00    +0.154 HD
ATOM     11  C   UNL     1       5.233  -0.960   1.800  0.00  0.00    +0.248 C 
ATOM     12  O   UNL     1       4.891  -2.104   1.589  0.00  0.00    -0.273 OA
BRANCH  11  13
ATOM     13  C   UNL     1       6.676  -0.561   1.632  0.00  0.00    +0.308 C 
ATOM     14  F   UNL     1       7.423  -1.674   1.230  0.00  0.00    -0.239 F 
ENDBRANCH  11  13
ENDBRANCH   1   9
BRANCH   1  15
ATOM     15  C   UNL     1       2.375   0.156   3.652  0.00  0.00    +0.250 C 
ATOM     16 CL   UNL     1       2.348   1.955   3.535  0.00  0.00    -0.076 Cl
ATOM     17 CL   UNL     1       3.436  -0.341   5.023  0.00  0.00    -0.076 Cl
ATOM     18 CL   UNL     1       0.702  -0.453   3.935  0.00  0.00    -0.076 Cl
ENDBRANCH   1  15
TORSDOF 4
