REMARK  Name = ZINC67674610
REMARK  7 active torsions:
REMARK  status: ('A' for Active; 'I' for Inactive)
REMARK    1  A    between atoms: C1_1  and  C2_2
REMARK    2  A    between atoms: C2_2  and  C3_3
REMARK    3  A    between atoms: C2_2  and  C4_4
REMARK    4  A    between atoms: C4_4  and  N1_5
REMARK    5  A    between atoms: C6_7  and  C9_11
REMARK    6  A    between atoms: N2_13  and  C10_14
REMARK    7  A    between atoms: C13_17  and  N3_20
REMARK                            x       y       z     vdW  Elec       q    Type
REMARK                         _______ _______ _______ _____ _____    ______ ____
ROOT
ATOM      1  C   UNL     1       4.903   2.252  -1.536  0.00  0.00    +0.218 C 
ATOM      2  N   UNL     1       6.249   2.285  -1.588  0.00  0.00    -0.312 N 
ATOM      3  H   UNL     1       6.744   1.490  -1.840  0.00  0.00    +0.149 HD
ATOM      4  O   UNL     1       4.284   3.246  -1.220  0.00  0.00    -0.275 OA
ENDROOT
BRANCH   1   7
ATOM      5  N   UNL     1       2.125  -0.091  -1.209  0.00  0.00    -0.300 N 
ATOM      6  C   UNL     1       2.639   1.176  -1.742  0.00  0.00    +0.121 C 
ATOM      7  C   UNL     1       4.166   0.980  -1.869  0.00  0.00    +0.101 C 
ATOM      8  C   UNL     1       4.434  -0.110  -0.805  0.00  0.00    +0.110 C 
ATOM      9  C   UNL     1       3.110  -0.828  -0.667  0.00  0.00    +0.216 C 
ATOM     10  O   UNL     1       2.958  -1.913  -0.145  0.00  0.00    -0.276 OA
BRANCH   5  11
ATOM     11  C   UNL     1       0.718  -0.497  -1.257  0.00  0.00    +0.110 C 
BRANCH  11  13
ATOM     12  C   UNL     1      -0.019   1.526   0.010  0.00  0.00    +0.009 C 
ATOM     13  C   UNL     1       0.002  -0.004   0.002  0.00  0.00    +0.000 C 
ATOM     14  C   UNL     1      -1.433  -0.534   0.013  0.00  0.00    +0.009 C 
ENDBRANCH  11  13
ENDBRANCH   5  11
ENDBRANCH   1   7
BRANCH   2  15
ATOM     15  C   UNL     1       6.965   3.521  -1.264  0.00  0.00    +0.073 C 
ATOM     16  C   UNL     1       7.041   4.408  -2.509  0.00  0.00    +0.024 C 
ATOM     17  C   UNL     1       7.788   5.699  -2.170  0.00  0.00    +0.027 C 
ATOM     18  C   UNL     1       9.204   5.360  -1.698  0.00  0.00    +0.090 C 
ATOM     19  C   UNL     1       9.127   4.474  -0.453  0.00  0.00    +0.027 C 
ATOM     20  C   UNL     1       8.380   3.183  -0.792  0.00  0.00    +0.024 C 
BRANCH  18  21
ATOM     21  N   UNL     1       9.919   6.597  -1.374  0.00  0.00    -0.317 N 
ATOM     22  C   UNL     1       9.576   7.517  -0.441  0.00  0.00    +0.225 A 
ATOM     23  N   UNL     1      10.477   8.460  -0.474  0.00  0.00    -0.138 NA
ATOM     24  N   UNL     1      11.359   8.184  -1.369  0.00  0.00    -0.138 NA
ATOM     25  C   UNL     1      11.063   7.050  -1.943  0.00  0.00    +0.225 A 
ENDBRANCH  18  21
ENDBRANCH   2  15
TORSDOF 5
