REMARK  Name = ZINC69775698
REMARK  4 active torsions:
REMARK  status: ('A' for Active; 'I' for Inactive)
REMARK    1  A    between atoms: C6_6  and  C7_7
REMARK    2  A    between atoms: C7_7  and  N1_8
REMARK    3  A    between atoms: N2_11  and  C9_12
REMARK    4  A    between atoms: C9_12  and  C10_13
REMARK                            x       y       z     vdW  Elec       q    Type
REMARK                         _______ _______ _______ _____ _____    ______ ____
ROOT
ATOM      1  N   UNL     1      -1.726  -1.017  -1.368  0.00  0.00    -0.295 N 
ATOM      2  H   UNL     1      -1.191  -0.691  -2.109  0.00  0.00    +0.151 HD
ATOM      3  C   UNL     1      -2.867  -1.693  -1.607  0.00  0.00    +0.300 C 
ATOM      4  N   UNL     1      -3.265  -1.916  -2.875  0.00  0.00    -0.295 N 
ATOM      5  H   UNL     1      -2.731  -1.590  -3.616  0.00  0.00    +0.151 HD
ATOM      6  O   UNL     1      -3.537  -2.102  -0.679  0.00  0.00    -0.253 OA
ENDROOT
BRANCH   1   7
ATOM      7  C   UNL     1      -1.293  -0.775   0.010  0.00  0.00    +0.141 C 
BRANCH   7  15
ATOM      8  C   UNL     1      -0.017   1.378   0.010  0.00  0.00    +0.008 A 
ATOM      9  C   UNL     1       1.170   2.086   0.002  0.00  0.00    +0.040 A 
ATOM     10  C   UNL     1       2.379   1.412  -0.013  0.00  0.00    +0.142 A 
ATOM     11  F   UNL     1       3.539   2.103  -0.021  0.00  0.00    -0.204 F 
ATOM     12  C   UNL     1       2.397   0.026  -0.021  0.00  0.00    +0.076 A 
ATOM     13 CL   UNL     1       3.911  -0.823  -0.040  0.00  0.00    -0.081 Cl
ATOM     14  C   UNL     1       1.208  -0.680  -0.013  0.00  0.00    +0.028 A 
ATOM     15  C   UNL     1       0.002  -0.004   0.002  0.00  0.00    -0.029 A 
ENDBRANCH   7  15
ENDBRANCH   1   7
BRANCH   4  16
ATOM     16  C   UNL     1      -4.506  -2.651  -3.135  0.00  0.00    +0.141 C 
BRANCH  16  17
ATOM     17  C   UNL     1      -4.721  -2.763  -4.622  0.00  0.00    -0.027 A 
ATOM     18  C   UNL     1      -5.427  -1.789  -5.312  0.00  0.00    +0.025 A 
ATOM     19  C   UNL     1      -5.604  -1.925  -6.676  0.00  0.00    +0.111 A 
ATOM     20  N   UNL     1      -5.113  -2.966  -7.320  0.00  0.00    -0.263 NA
ATOM     21  C   UNL     1      -4.437  -3.911  -6.696  0.00  0.00    +0.111 A 
ATOM     22  C   UNL     1      -4.214  -3.839  -5.334  0.00  0.00    +0.025 A 
ENDBRANCH  16  17
ENDBRANCH   4  16
TORSDOF 4
