REMARK  Name = ZINC71595274
REMARK  7 active torsions:
REMARK  status: ('A' for Active; 'I' for Inactive)
REMARK    1  A    between atoms: C1_1  and  C2_2
REMARK    2  A    between atoms: C2_2  and  C3_3
REMARK    3  A    between atoms: C6_6  and  O3_18
REMARK    4  A    between atoms: C7_7  and  C9_9
REMARK    5  A    between atoms: C9_9  and  C12_16
REMARK    6  A    between atoms: C12_16  and  N3_17
REMARK    7  A    between atoms: O3_18  and  C13_19
REMARK                            x       y       z     vdW  Elec       q    Type
REMARK                         _______ _______ _______ _____ _____    ______ ____
ROOT
ATOM      1  C   UNL     1       4.210  -1.389  -2.325  0.00  0.00    +0.181 C 
ATOM      2  C   UNL     1       4.520  -2.860  -2.523  0.00  0.00    +0.254 C 
ATOM      3  N   UNL     1       5.155  -3.253  -1.402  0.00  0.00    -0.238 N 
ATOM      4  H   UNL     1       5.476  -4.155  -1.245  0.00  0.00    +0.159 HD
ATOM      5  C   UNL     1       5.288  -2.246  -0.531  0.00  0.00    +0.307 C 
ATOM      6  O   UNL     1       5.828  -2.356   0.552  0.00  0.00    -0.252 OA
ATOM      7  O   UNL     1       4.252  -3.540  -3.490  0.00  0.00    -0.272 OA
ATOM      8  N   UNL     1       4.758  -1.097  -0.989  0.00  0.00    -0.277 N 
ATOM      9  H   UNL     1       4.740  -0.243  -0.529  0.00  0.00    +0.152 HD
ENDROOT
BRANCH   1  14
ATOM     10  C   UNL     1       0.707  -0.490  -1.238  0.00  0.00    -0.047 A 
ATOM     11  C   UNL     1      -0.012  -0.718  -2.397  0.00  0.00    +0.007 A 
ATOM     12  C   UNL     1       0.632  -1.164  -3.534  0.00  0.00    +0.046 A 
ATOM     13  C   UNL     1       2.002  -1.383  -3.514  0.00  0.00    +0.126 A 
ATOM     14  C   UNL     1       2.722  -1.153  -2.350  0.00  0.00    +0.032 A 
ATOM     15  C   UNL     1       2.073  -0.702  -1.216  0.00  0.00    +0.013 A 
BRANCH  10  17
ATOM     16  C   UNL     1      -0.019   1.526   0.010  0.00  0.00    +0.009 C 
ATOM     17  C   UNL     1       0.002  -0.004   0.002  0.00  0.00    +0.032 C 
ENDBRANCH  10  17
BRANCH  13  18
ATOM     18  O   UNL     1       2.638  -1.822  -4.632  0.00  0.00    -0.495 OA
ATOM     19  C   UNL     1       1.834  -2.038  -5.793  0.00  0.00    +0.277 C 
ENDBRANCH  13  18
ENDBRANCH   1  14
BRANCH   1  20
ATOM     20  C   UNL     1       4.907  -0.540  -3.390  0.00  0.00    +0.168 C 
BRANCH  20  21
ATOM     21  N   UNL     1       6.354  -0.788  -3.344  0.00  0.00    +0.221 N 
ATOM     22  H   UNL     1       6.533  -1.765  -3.522  0.00  0.00    +0.200 HD
ATOM     23  H   UNL     1       6.709  -0.542  -2.432  0.00  0.00    +0.200 HD
ATOM     24  H   UNL     1       6.813  -0.228  -4.046  0.00  0.00    +0.200 HD
ENDBRANCH  20  21
ENDBRANCH   1  20
TORSDOF 5
