REMARK  Name = ZINC71601338
REMARK  3 active torsions:
REMARK  status: ('A' for Active; 'I' for Inactive)
REMARK    1  A    between atoms: C6_6  and  C7_7
REMARK    2  A    between atoms: C7_7  and  C8_8
REMARK    3  A    between atoms: C12_13  and  O1_14
REMARK                            x       y       z     vdW  Elec       q    Type
REMARK                         _______ _______ _______ _____ _____    ______ ____
ROOT
ATOM      1  C   UNL     1      -1.745  -1.028  -1.429  0.00  0.00    +0.067 C 
ATOM      2  C   UNL     1      -0.736  -1.943  -2.128  0.00  0.00    +0.135 C 
ATOM      3  N   UNL     1      -1.169  -2.189  -3.509  0.00  0.00    +0.227 N 
ATOM      4  H   UNL     1      -0.475  -2.748  -3.983  0.00  0.00    +0.201 HD
ATOM      5  H   UNL     1      -1.274  -1.308  -3.990  0.00  0.00    +0.201 HD
ATOM      6  C   UNL     1      -2.453  -2.901  -3.509  0.00  0.00    +0.132 C 
ATOM      7  C   UNL     1      -3.527  -2.023  -2.864  0.00  0.00    +0.082 C 
ATOM      8  C   UNL     1      -3.119  -1.703  -1.423  0.00  0.00    +0.128 C 
ENDROOT
BRANCH   8   9
ATOM      9  O   UNL     1      -4.081  -0.822  -0.838  0.00  0.00    -0.391 OA
ATOM     10  H   UNL     1      -4.976  -1.186  -0.801  0.00  0.00    +0.210 HD
ENDBRANCH   8   9
BRANCH   1  11
ATOM     11  C   UNL     1      -1.293  -0.775   0.010  0.00  0.00    +0.046 C 
BRANCH  11  18
ATOM     12  C   UNL     1      -0.017   1.378   0.010  0.00  0.00    +0.005 A 
ATOM     13  C   UNL     1       1.171   2.086   0.002  0.00  0.00    +0.015 A 
ATOM     14  C   UNL     1       2.378   1.411  -0.013  0.00  0.00    +0.018 A 
ATOM     15 BR   UNL     1       4.003   2.378  -0.024  0.00  0.00    -0.050 Br
ATOM     16  C   UNL     1       2.396   0.027  -0.021  0.00  0.00    +0.015 A 
ATOM     17  C   UNL     1       1.208  -0.679  -0.013  0.00  0.00    +0.005 A 
ATOM     18  C   UNL     1       0.002  -0.004   0.002  0.00  0.00    -0.047 A 
ENDBRANCH  11  18
ENDBRANCH   1  11
TORSDOF 3
