REMARK  Name = ZINC69367382
REMARK  5 active torsions:
REMARK  status: ('A' for Active; 'I' for Inactive)
REMARK    1  A    between atoms: C3_3  and  O2_15
REMARK    2  A    between atoms: C6_6  and  C7_7
REMARK    3  A    between atoms: N1_9  and  C8_10
REMARK    4  A    between atoms: O2_15  and  C13_16
REMARK    5  A    between atoms: C13_16  and  C14_17
REMARK                            x       y       z     vdW  Elec       q    Type
REMARK                         _______ _______ _______ _____ _____    ______ ____
ROOT
ATOM      1  C   UNL     1      -0.017   1.393   0.010  0.00  0.00    +0.016 A 
ATOM      2  C   UNL     1       1.167   2.096   0.002  0.00  0.00    +0.046 A 
ATOM      3  C   UNL     1       2.380   1.417  -0.013  0.00  0.00    +0.121 A 
ATOM      4  C   UNL     1       2.403   0.028  -0.021  0.00  0.00    +0.046 A 
ATOM      5  C   UNL     1       1.224  -0.682  -0.013  0.00  0.00    +0.016 A 
ATOM      6  C   UNL     1       0.002  -0.004   0.002  0.00  0.00    +0.037 A 
ENDROOT
BRANCH   6   7
ATOM      7  C   UNL     1      -1.265  -0.761   0.011  0.00  0.00    +0.244 C 
ATOM      8  N   UNL     1      -1.244  -2.109   0.003  0.00  0.00    -0.308 N 
ATOM      9  H   UNL     1      -0.397  -2.581  -0.008  0.00  0.00    +0.149 HD
ATOM     10  O   UNL     1      -2.327  -0.169   0.024  0.00  0.00    -0.270 OA
BRANCH   8  11
ATOM     11  C   UNL     1      -2.502  -2.861   0.012  0.00  0.00    +0.073 C 
ATOM     12  C   UNL     1      -2.969  -3.092   1.463  0.00  0.00    +0.022 C 
ATOM     13  C   UNL     1      -3.582  -4.515   1.443  0.00  0.00    +0.002 C 
ATOM     14  C   UNL     1      -2.633  -5.281   0.487  0.00  0.00    +0.002 C 
ATOM     15  C   UNL     1      -2.288  -4.252  -0.609  0.00  0.00    +0.022 C 
ENDBRANCH   8  11
ENDBRANCH   6   7
BRANCH   3  16
ATOM     16  O   UNL     1       3.545   2.114  -0.021  0.00  0.00    -0.483 OA
BRANCH  16  17
ATOM     17  C   UNL     1       4.755   1.354  -0.036  0.00  0.00    +0.325 C 
BRANCH  17  18
ATOM     18  C   UNL     1       5.936   2.290  -0.043  0.00  0.00    +0.261 C 
ATOM     19  N   UNL     1       7.189   1.793  -0.058  0.00  0.00    -0.222 N 
ATOM     20  C   UNL     1       8.423   2.594  -0.060  0.00  0.00    +0.137 C 
ATOM     21  C   UNL     1       9.547   1.540  -0.079  0.00  0.00    +0.125 C 
ATOM     22  N   UNL     1       8.827   0.258  -0.086  0.00  0.00    -0.297 N 
ATOM     23  H   UNL     1       9.242  -0.619  -0.097  0.00  0.00    +0.150 HD
ATOM     24  C   UNL     1       7.509   0.493  -0.067  0.00  0.00    +0.309 C 
ATOM     25  O   UNL     1       6.678  -0.394  -0.063  0.00  0.00    -0.252 OA
ATOM     26  O   UNL     1       5.759   3.489  -0.035  0.00  0.00    -0.271 OA
ENDBRANCH  17  18
ENDBRANCH  16  17
ENDBRANCH   3  16
TORSDOF 5
