REMARK  Name = ZINC70948092
REMARK  5 active torsions:
REMARK  status: ('A' for Active; 'I' for Inactive)
REMARK    1  A    between atoms: C1_1  and  C2_2
REMARK    2  A    between atoms: C2_2  and  C3_4
REMARK    3  A    between atoms: C8_9  and  N1_10
REMARK    4  A    between atoms: N1_10  and  C9_11
REMARK    5  A    between atoms: C9_11  and  C10_12
REMARK                            x       y       z     vdW  Elec       q    Type
REMARK                         _______ _______ _______ _____ _____    ______ ____
ROOT
ATOM      1  N   UNL     1      -0.046  -2.838  -0.224  0.00  0.00    -0.335 N 
ATOM      2  H   UNL     1       0.793  -2.356  -0.161  0.00  0.00    +0.147 HD
ENDROOT
BRANCH   1   8
ATOM      3  C   UNL     1      -1.259  -0.754  -0.001  0.00  0.00    +0.038 A 
ATOM      4  C   UNL     1      -2.481  -0.080   0.116  0.00  0.00    +0.013 A 
ATOM      5  C   UNL     1      -3.659  -0.793   0.135  0.00  0.00    +0.001 A 
ATOM      6  C   UNL     1      -3.643  -2.176   0.039  0.00  0.00    +0.002 A 
ATOM      7  C   UNL     1      -2.449  -2.857  -0.076  0.00  0.00    +0.023 A 
ATOM      8  C   UNL     1      -1.248  -2.157  -0.103  0.00  0.00    +0.038 A 
BRANCH   3  10
ATOM      9  C   UNL     1      -0.023   1.504  -0.048  0.00  0.00    +0.091 C 
ATOM     10  C   UNL     1      -0.000  -0.002  -0.022  0.00  0.00    +0.162 C 
ATOM     11  O   UNL     1       1.059  -0.593  -0.018  0.00  0.00    -0.292 OA
ENDBRANCH   3  10
ENDBRANCH   1   8
BRANCH   1  12
ATOM     12  C   UNL     1      -0.045  -4.286  -0.449  0.00  0.00    +0.197 C 
BRANCH  12  13
ATOM     13  C   UNL     1       1.377  -4.778  -0.544  0.00  0.00    +0.233 C 
ATOM     14  N   UNL     1       1.625  -6.066  -0.853  0.00  0.00    -0.300 N 
ATOM     15  C   UNL     1       3.005  -6.530  -1.047  0.00  0.00    +0.108 C 
ATOM     16  C   UNL     1       3.735  -6.494   0.289  0.00  0.00    +0.019 C 
ATOM     17  C   UNL     1       3.217  -7.636   1.179  0.00  0.00    +0.002 C 
ATOM     18  C   UNL     1       1.867  -7.246   1.771  0.00  0.00    +0.000 C 
ATOM     19  C   UNL     1       0.749  -8.149   1.218  0.00  0.00    +0.002 C 
ATOM     20  C   UNL     1       0.920  -8.316  -0.292  0.00  0.00    +0.019 C 
ATOM     21  C   UNL     1       0.530  -7.012  -0.991  0.00  0.00    +0.108 C 
ATOM     22  O   UNL     1       2.297  -4.014  -0.344  0.00  0.00    -0.274 OA
ENDBRANCH  12  13
ENDBRANCH   1  12
TORSDOF 4
