REMARK  Name = ZINC67640948
REMARK  8 active torsions:
REMARK  status: ('A' for Active; 'I' for Inactive)
REMARK    1  A    between atoms: C1_1  and  C2_2
REMARK    2  A    between atoms: C3_3  and  C6_9
REMARK    3  A    between atoms: C4_4  and  C5_8
REMARK    4  A    between atoms: C6_9  and  C7_10
REMARK    5  A    between atoms: C6_9  and  N3_13
REMARK    6  A    between atoms: C7_10  and  O2_12
REMARK    7  A    between atoms: N3_13  and  S1_14
REMARK    8  A    between atoms: S1_14  and  N4_17
REMARK                            x       y       z     vdW  Elec       q    Type
REMARK                         _______ _______ _______ _____ _____    ______ ____
ROOT
ATOM      1  C   UNL     1      -0.017  -0.308  -2.476  0.00  0.00    +0.219 C 
ENDROOT
BRANCH   1   4
ATOM      2  C   UNL     1       0.116  -3.217  -1.332  0.00  0.00    +0.065 C 
ATOM      3  C   UNL     1      -0.043  -1.952  -0.527  0.00  0.00    +0.038 A 
ATOM      4  C   UNL     1      -0.102  -0.694  -1.022  0.00  0.00    +0.025 A 
ATOM      5  C   UNL     1      -0.253   0.185   0.055  0.00  0.00    +0.065 A 
ATOM      6  C   UNL     1      -0.361   1.685  -0.037  0.00  0.00    +0.068 C 
ATOM      7  N   UNL     1      -0.285  -0.520   1.157  0.00  0.00    -0.179 NA
ATOM      8  N   UNL     1      -0.160  -1.873   0.815  0.00  0.00    -0.281 N 
ATOM      9  H   UNL     1      -0.155  -2.620   1.433  0.00  0.00    +0.189 HD
ENDBRANCH   1   4
BRANCH   1  10
ATOM     10  N   UNL     1      -0.880  -1.191  -3.266  0.00  0.00    -0.161 NA
ATOM     11  H   UNL     1      -0.972  -2.125  -3.022  0.00  0.00    +0.150 HD
BRANCH  10  12
ATOM     12  S   UNL     1      -1.698  -0.593  -4.576  0.00  0.00    +0.098 S 
ATOM     13  O   UNL     1      -2.340   0.599  -4.144  0.00  0.00    -0.141 OA
ATOM     14  O   UNL     1      -2.415  -1.683  -5.139  0.00  0.00    -0.141 OA
BRANCH  12  15
ATOM     15  N   UNL     1      -0.566  -0.141  -5.697  0.00  0.00    -0.167 NA
ATOM     16  C   UNL     1       0.061   1.185  -5.795  0.00  0.00    +0.110 C 
ATOM     17  C   UNL     1       1.027   1.147  -6.998  0.00  0.00    +0.018 C 
ATOM     18  C   UNL     1       0.470  -0.022  -7.854  0.00  0.00    +0.018 C 
ATOM     19  C   UNL     1      -0.014  -1.005  -6.757  0.00  0.00    +0.110 C 
ENDBRANCH  12  15
ENDBRANCH  10  12
ENDBRANCH   1  10
BRANCH   1  20
ATOM     20  C   UNL     1       1.407  -0.443  -2.950  0.00  0.00    +0.328 C 
ATOM     21  O   UNL     1       1.797  -1.499  -3.418  0.00  0.00    -0.249 OA
BRANCH  20  22
ATOM     22  O   UNL     1       2.169   0.505  -2.865  0.00  0.00    -0.479 OA
ATOM     23  H   UNL     1       1.870   1.316  -2.505  0.00  0.00    +0.295 HD
ENDBRANCH  20  22
ENDBRANCH   1  20
TORSDOF 6
