REMARK  Name = ZINC06678583
REMARK  8 active torsions:
REMARK  status: ('A' for Active; 'I' for Inactive)
REMARK    1  A    between atoms: C1_1  and  C2_2
REMARK    2  A    between atoms: C6_11  and  C16_25
REMARK    3  A    between atoms: C7_13  and  C8_14
REMARK    4  A    between atoms: C10_16  and  O4_23
REMARK    5  A    between atoms: C11_17  and  O3_22
REMARK    6  A    between atoms: C12_18  and  O2_20
REMARK    7  A    between atoms: O2_20  and  C14_21
REMARK    8  A    between atoms: O4_23  and  C15_24
REMARK                            x       y       z     vdW  Elec       q    Type
REMARK                         _______ _______ _______ _____ _____    ______ ____
ROOT
ATOM      1  C   UNL     1      -1.263   2.163  -2.536  0.00  0.00    +0.068 C 
ATOM      2  C   UNL     1      -2.739   1.943  -2.321  0.00  0.00    +0.066 A 
ATOM      3  C   UNL     1      -3.348   1.589  -1.099  0.00  0.00    +0.032 A 
ATOM      4  C   UNL     1      -4.677   1.485  -1.316  0.00  0.00    +0.125 A 
ATOM      5  N   UNL     1      -5.721   1.163  -0.481  0.00  0.00    -0.270 N 
ATOM      6  H   UNL     1      -6.571   1.122  -0.947  0.00  0.00    +0.156 HD
ATOM      7  C   UNL     1      -5.834   0.900   0.786  0.00  0.00    +0.231 C 
ATOM      8  C   UNL     1      -4.795   0.744   1.826  0.00  0.00    +0.130 C 
ATOM      9  C   UNL     1      -4.245  -0.682   1.763  0.00  0.00    +0.029 C 
ATOM     10  S   UNL     1      -3.434   1.903   1.634  0.00  0.00    -0.135 S 
ATOM     11  O   UNL     1      -6.973   0.762   1.178  0.00  0.00    -0.274 OA
ATOM     12  N   UNL     1      -4.893   1.769  -2.639  0.00  0.00    -0.263 N 
ATOM     13  H   UNL     1      -5.780   1.776  -3.099  0.00  0.00    +0.190 HD
ATOM     14  C   UNL     1      -2.555   1.393   0.155  0.00  0.00    +0.112 C 
ATOM     15  N   UNL     1      -3.662   2.048  -3.233  0.00  0.00    -0.177 NA
ENDROOT
BRANCH  14  16
ATOM     16  C   UNL     1      -1.280   2.190   0.051  0.00  0.00    -0.023 A 
ATOM     17  C   UNL     1      -0.070   1.538  -0.095  0.00  0.00    +0.054 A 
ATOM     18  C   UNL     1       1.105   2.268  -0.197  0.00  0.00    +0.165 A 
ATOM     19  C   UNL     1       1.065   3.657  -0.146  0.00  0.00    +0.201 A 
ATOM     20  C   UNL     1      -0.154   4.308   0.006  0.00  0.00    +0.165 A 
ATOM     21  C   UNL     1      -1.324   3.570   0.107  0.00  0.00    +0.054 A 
BRANCH  18  22
ATOM     22  O   UNL     1       2.295   1.627  -0.346  0.00  0.00    -0.491 OA
ATOM     23  C   UNL     1       2.260   0.199  -0.391  0.00  0.00    +0.277 C 
ENDBRANCH  18  22
BRANCH  19  24
ATOM     24  O   UNL     1       2.215   4.377  -0.245  0.00  0.00    -0.501 OA
ATOM     25  H   UNL     1       2.454   4.614  -1.151  0.00  0.00    +0.292 HD
ENDBRANCH  19  24
BRANCH  20  26
ATOM     26  O   UNL     1      -0.198   5.666   0.057  0.00  0.00    -0.491 OA
ATOM     27  C   UNL     1      -1.485   6.267   0.215  0.00  0.00    +0.277 C 
ENDBRANCH  20  26
ENDBRANCH  14  16
TORSDOF 4
