REMARK  Name = ZINC23239554
REMARK  5 active torsions:
REMARK  status: ('A' for Active; 'I' for Inactive)
REMARK    1  A    between atoms: C4_4  and  O2_20
REMARK    2  A    between atoms: C5_5  and  C7_7
REMARK    3  A    between atoms: N1_9  and  C8_10
REMARK    4  A    between atoms: C8_10  and  C9_11
REMARK    5  A    between atoms: O2_20  and  C15_21
REMARK                            x       y       z     vdW  Elec       q    Type
REMARK                         _______ _______ _______ _____ _____    ______ ____
ROOT
ATOM      1  C   UNL     1       1.250  -2.159  -0.022  0.00  0.00    +0.248 C 
ATOM      2  N   UNL     1       0.095  -2.855  -0.014  0.00  0.00    -0.304 N 
ATOM      3  H   UNL     1      -0.754  -2.385  -0.003  0.00  0.00    +0.149 HD
ATOM      4  O   UNL     1       2.314  -2.748  -0.036  0.00  0.00    -0.270 OA
ENDROOT
BRANCH   1   9
ATOM      5  C   UNL     1      -0.017   1.374   0.010  0.00  0.00    +0.001 A 
ATOM      6  C   UNL     1       1.170   2.089   0.002  0.00  0.00    +0.004 A 
ATOM      7  C   UNL     1       2.383   1.429  -0.013  0.00  0.00    +0.046 A 
ATOM      8  C   UNL     1       2.420   0.043  -0.021  0.00  0.00    +0.139 A 
ATOM      9  C   UNL     1       1.222  -0.684  -0.013  0.00  0.00    +0.078 A 
ATOM     10  C   UNL     1       0.002  -0.004   0.002  0.00  0.00    +0.017 A 
BRANCH   8  11
ATOM     11  O   UNL     1       3.611  -0.606  -0.037  0.00  0.00    -0.433 OA
BRANCH  11  12
ATOM     12  C   UNL     1       4.790   0.201  -0.045  0.00  0.00    +0.541 C 
ATOM     13  F   UNL     1       4.814   1.003   1.101  0.00  0.00    -0.166 F 
ATOM     14  F   UNL     1       4.791   1.015  -1.183  0.00  0.00    -0.166 F 
ENDBRANCH  11  12
ENDBRANCH   8  11
ENDBRANCH   1   9
BRANCH   2  15
ATOM     15  C   UNL     1       0.122  -4.319  -0.023  0.00  0.00    +0.181 C 
BRANCH  15  16
ATOM     16  C   UNL     1      -1.289  -4.848  -0.012  0.00  0.00    +0.155 A 
ATOM     17  N   UNL     1      -2.004  -5.120   1.049  0.00  0.00    -0.132 NA
ATOM     18  N   UNL     1      -3.166  -5.553   0.705  0.00  0.00    -0.129 NA
ATOM     19  C   UNL     1      -3.253  -5.581  -0.615  0.00  0.00    +0.161 A 
ATOM     20  C   UNL     1      -4.272  -5.959  -1.511  0.00  0.00    +0.048 A 
ATOM     21  C   UNL     1      -4.051  -5.855  -2.849  0.00  0.00    +0.005 A 
ATOM     22  C   UNL     1      -2.812  -5.387  -3.318  0.00  0.00    +0.018 A 
ATOM     23  C   UNL     1      -1.843  -5.033  -2.447  0.00  0.00    +0.094 A 
ATOM     24  N   UNL     1      -2.053  -5.124  -1.103  0.00  0.00    -0.285 N 
ENDBRANCH  15  16
ENDBRANCH   2  15
TORSDOF 5
