REMARK  Name = ZINC71572863
REMARK  7 active torsions:
REMARK  status: ('A' for Active; 'I' for Inactive)
REMARK    1  A    between atoms: C1_1  and  C2_2
REMARK    2  A    between atoms: C2_2  and  C3_3
REMARK    3  A    between atoms: C2_2  and  O1_4
REMARK    4  A    between atoms: O1_4  and  C4_5
REMARK    5  A    between atoms: C7_8  and  C10_12
REMARK    6  A    between atoms: C10_12  and  C11_13
REMARK    7  A    between atoms: C10_12  and  N1_17
REMARK                            x       y       z     vdW  Elec       q    Type
REMARK                         _______ _______ _______ _____ _____    ______ ____
ROOT
ATOM      1  C   UNL     1      -1.580  -1.640  -0.687  0.00  0.00    +0.156 A 
ATOM      2  C   UNL     1      -0.531  -2.329  -1.276  0.00  0.00    +0.049 A 
ATOM      3  C   UNL     1      -0.779  -3.488  -1.986  0.00  0.00    +0.009 A 
ATOM      4  C   UNL     1      -2.072  -3.962  -2.110  0.00  0.00    -0.019 A 
ATOM      5  C   UNL     1      -3.121  -3.278  -1.524  0.00  0.00    +0.047 A 
ATOM      6  C   UNL     1      -2.878  -2.120  -0.807  0.00  0.00    +0.165 A 
ATOM      7  F   UNL     1      -3.902  -1.455  -0.229  0.00  0.00    -0.202 F 
ENDROOT
BRANCH   1   8
ATOM      8  O   UNL     1      -1.339  -0.499   0.012  0.00  0.00    -0.486 OA
BRANCH   8  10
ATOM      9  C   UNL     1      -0.011   1.505   0.263  0.00  0.00    +0.051 C 
ATOM     10  C   UNL     1       0.001  -0.002  -0.000  0.00  0.00    +0.167 C 
ATOM     11  C   UNL     1       0.815  -0.703   1.089  0.00  0.00    +0.051 C 
ENDBRANCH   8  10
ENDBRANCH   1   8
BRANCH   4  12
ATOM     12  C   UNL     1      -2.339  -5.226  -2.885  0.00  0.00    +0.187 C 
BRANCH  12  13
ATOM     13  C   UNL     1      -2.839  -4.870  -4.286  0.00  0.00    +0.409 C 
ATOM     14  F   UNL     1      -4.021  -4.128  -4.184  0.00  0.00    -0.169 F 
ATOM     15  F   UNL     1      -3.087  -6.043  -5.006  0.00  0.00    -0.169 F 
ATOM     16  F   UNL     1      -1.869  -4.112  -4.949  0.00  0.00    -0.169 F 
ENDBRANCH  12  13
BRANCH  12  17
ATOM     17  N   UNL     1      -3.358  -6.022  -2.189  0.00  0.00    -0.317 NA
ATOM     18  H   UNL     1      -4.222  -5.508  -2.102  0.00  0.00    +0.119 HD
ATOM     19  H   UNL     1      -3.026  -6.325  -1.285  0.00  0.00    +0.119 HD
ENDBRANCH  12  17
ENDBRANCH   4  12
TORSDOF 5
