REMARK  Name = ZINC67514210
REMARK  8 active torsions:
REMARK  status: ('A' for Active; 'I' for Inactive)
REMARK    1  A    between atoms: C1_1  and  C2_2
REMARK    2  A    between atoms: C2_2  and  N1_3
REMARK    3  A    between atoms: N1_3  and  C3_4
REMARK    4  A    between atoms: N1_3  and  C5_6
REMARK    5  A    between atoms: C3_4  and  C4_5
REMARK    6  A    between atoms: C5_6  and  C6_7
REMARK    7  A    between atoms: C9_11  and  C12_16
REMARK    8  A    between atoms: C16_24  and  C17_25
REMARK                            x       y       z     vdW  Elec       q    Type
REMARK                         _______ _______ _______ _____ _____    ______ ____
ROOT
ATOM      1  C   UNL     1      -2.770  -1.855  -0.595  0.00  0.00    +0.033 A 
ATOM      2  C   UNL     1      -3.371  -1.730   0.663  0.00  0.00    +0.123 A 
ATOM      3  N   UNL     1      -4.453  -2.420   0.949  0.00  0.00    -0.235 NA
ATOM      4  C   UNL     1      -4.995  -3.245   0.051  0.00  0.00    +0.168 A 
ATOM      5  C   UNL     1      -6.125  -4.084   0.092  0.00  0.00    +0.101 A 
ATOM      6  C   UNL     1      -6.205  -4.722  -1.159  0.00  0.00    +0.150 A 
ATOM      7  N   UNL     1      -5.213  -4.313  -1.904  0.00  0.00    -0.173 NA
ATOM      8  N   UNL     1      -4.438  -3.394  -1.187  0.00  0.00    -0.221 N 
ATOM      9  C   UNL     1      -3.319  -2.689  -1.515  0.00  0.00    +0.125 A 
ENDROOT
BRANCH   5  10
ATOM     10  C   UNL     1      -7.042  -4.259   1.222  0.00  0.00    +0.252 C 
ATOM     11  N   UNL     1      -8.363  -4.407   1.000  0.00  0.00    -0.285 N 
ATOM     12  C   UNL     1      -9.325  -4.462   2.114  0.00  0.00    +0.127 C 
ATOM     13  C   UNL     1     -10.290  -3.283   1.970  0.00  0.00    +0.123 C 
ATOM     14  N   UNL     1     -10.772  -3.175   0.600  0.00  0.00    -0.312 N 
ATOM     15  H   UNL     1     -11.605  -2.701   0.450  0.00  0.00    +0.149 HD
ATOM     16  C   UNL     1     -10.149  -3.683  -0.465  0.00  0.00    +0.233 C 
ATOM     17  O   UNL     1     -10.607  -3.460  -1.565  0.00  0.00    -0.274 OA
ATOM     18  C   UNL     1      -8.903  -4.514  -0.363  0.00  0.00    +0.159 C 
ATOM     19  C   UNL     1      -9.242  -5.975  -0.666  0.00  0.00    +0.038 C 
ATOM     20  O   UNL     1      -6.610  -4.271   2.360  0.00  0.00    -0.270 OA
ENDBRANCH   5  10
BRANCH   1  21
ATOM     21  C   UNL     1      -1.530  -1.066  -0.927  0.00  0.00    +0.171 C 
BRANCH  21  22
ATOM     22  N   UNL     1      -1.912   0.264  -1.421  0.00  0.00    +0.238 N 
ATOM     23  H   UNL     1      -2.558   0.164  -2.190  0.00  0.00    +0.204 HD
BRANCH  22  25
ATOM     24  C   UNL     1      -3.064   2.357  -0.883  0.00  0.00    +0.060 C 
ATOM     25  C   UNL     1      -2.554   1.022  -0.338  0.00  0.00    +0.128 C 
ENDBRANCH  22  25
BRANCH  22  26
ATOM     26  C   UNL     1      -0.714   0.980  -1.877  0.00  0.00    +0.128 C 
ATOM     27  C   UNL     1      -0.131   0.272  -3.101  0.00  0.00    +0.060 C 
ENDBRANCH  22  26
ENDBRANCH  21  22
ENDBRANCH   1  21
TORSDOF 5
