REMARK  Name = ZINC67756512
REMARK  3 active torsions:
REMARK  status: ('A' for Active; 'I' for Inactive)
REMARK    1  A    between atoms: C6_6  and  C7_7
REMARK    2  A    between atoms: C9_12  and  C10_13
REMARK    3  A    between atoms: C17_21  and  C20_25
REMARK                            x       y       z     vdW  Elec       q    Type
REMARK                         _______ _______ _______ _____ _____    ______ ____
ROOT
ATOM      1  C   UNL     1      -1.062  -2.249  -1.993  0.00  0.00    +0.055 C 
ATOM      2  C   UNL     1      -0.598  -3.663  -1.635  0.00  0.00    +0.013 C 
ATOM      3  C   UNL     1       0.473  -4.117  -2.629  0.00  0.00    +0.020 C 
ATOM      4  C   UNL     1      -0.124  -4.147  -4.039  0.00  0.00    +0.106 C 
ATOM      5  N   UNL     1      -0.703  -2.829  -4.336  0.00  0.00    -0.315 N 
ATOM      6  C   UNL     1      -0.336  -2.137  -5.484  0.00  0.00    +0.122 A 
ATOM      7  C   UNL     1       0.406  -2.780  -6.467  0.00  0.00    +0.062 A 
ATOM      8  C   UNL     1       0.766  -2.070  -7.614  0.00  0.00    +0.056 A 
ATOM      9  C   UNL     1       0.360  -0.733  -7.721  0.00  0.00    +0.038 A 
ATOM     10  C   UNL     1      -0.375  -0.171  -6.699  0.00  0.00    +0.114 A 
ATOM     11  N   UNL     1      -0.702  -0.873  -5.631  0.00  0.00    -0.240 NA
ATOM     12  C   UNL     1      -1.677  -2.258  -3.396  0.00  0.00    +0.116 C 
ENDROOT
BRANCH   1  18
ATOM     13  C   UNL     1      -1.999  -0.700  -0.181  0.00  0.00    +0.023 A 
ATOM     14  C   UNL     1      -3.179  -0.636   0.584  0.00  0.00    +0.143 A 
ATOM     15  N   UNL     1      -3.938  -1.645   0.246  0.00  0.00    -0.181 NA
ATOM     16  N   UNL     1      -3.277  -2.387  -0.741  0.00  0.00    -0.281 N 
ATOM     17  H   UNL     1      -3.614  -3.188  -1.171  0.00  0.00    +0.189 HD
ATOM     18  C   UNL     1      -2.094  -1.791  -0.995  0.00  0.00    +0.048 A 
BRANCH  13  25
ATOM     19  C   UNL     1      -1.091   1.623  -0.192  0.00  0.00    +0.011 A 
ATOM     20  C   UNL     1      -0.030   2.504  -0.134  0.00  0.00    +0.039 A 
ATOM     21  C   UNL     1       1.263   2.026  -0.002  0.00  0.00    +0.123 A 
ATOM     22  F   UNL     1       2.299   2.891   0.055  0.00  0.00    -0.205 F 
ATOM     23  C   UNL     1       1.497   0.662   0.070  0.00  0.00    +0.039 A 
ATOM     24  C   UNL     1       0.442  -0.225   0.012  0.00  0.00    +0.011 A 
ATOM     25  C   UNL     1      -0.860   0.252  -0.119  0.00  0.00    -0.015 A 
ENDBRANCH  13  25
ENDBRANCH   1  18
BRANCH   8  26
ATOM     26  C   UNL     1       1.531  -2.691  -8.654  0.00  0.00    +0.099 C 
ATOM     27  N   UNL     1       2.138  -3.184  -9.478  0.00  0.00    -0.191 NA
ENDBRANCH   8  26
TORSDOF 3
