REMARK  Name = ZINC02779238
REMARK  2 active torsions:
REMARK  status: ('A' for Active; 'I' for Inactive)
REMARK    1  A    between atoms: C1_1  and  N1_2
REMARK    2  A    between atoms: C4_5  and  C5_7
REMARK                            x       y       z     vdW  Elec       q    Type
REMARK                         _______ _______ _______ _____ _____    ______ ____
ROOT
ATOM      1  C   UNL     1       2.526   1.554  -0.015  0.00  0.00    +0.267 C 
ATOM      2  N   UNL     1       3.483   2.498   0.083  0.00  0.00    -0.293 N 
ATOM      3  C   UNL     1       3.131   3.921   0.201  0.00  0.00    +0.127 C 
ATOM      4  C   UNL     1       3.883   4.506   1.407  0.00  0.00    +0.127 C 
ATOM      5  N   UNL     1       5.319   4.232   1.261  0.00  0.00    -0.297 N 
ATOM      6  C   UNL     1       6.050   4.883   2.239  0.00  0.00    +0.218 A 
ATOM      7  N   UNL     1       6.851   4.178   3.025  0.00  0.00    -0.223 NA
ATOM      8  C   UNL     1       7.567   4.770   3.966  0.00  0.00    +0.116 A 
ATOM      9  C   UNL     1       7.464   6.142   4.132  0.00  0.00    +0.039 A 
ATOM     10  C   UNL     1       6.613   6.848   3.296  0.00  0.00    +0.116 A 
ATOM     11  N   UNL     1       5.929   6.195   2.371  0.00  0.00    -0.223 NA
ATOM     12  C   UNL     1       5.590   2.788   1.274  0.00  0.00    +0.127 C 
ATOM     13  C   UNL     1       4.907   2.132   0.069  0.00  0.00    +0.127 C 
ATOM     14  O   UNL     1       1.356   1.879  -0.077  0.00  0.00    -0.268 OA
ENDROOT
BRANCH   1  19
ATOM     15  C   UNL     1       5.252  -2.526  -0.176  0.00  0.00    +0.172 C 
ATOM     16  N   UNL     1       4.079  -1.650  -0.116  0.00  0.00    -0.274 N 
ATOM     17  C   UNL     1       2.799  -2.077  -0.057  0.00  0.00    +0.109 A 
ATOM     18  C   UNL     1       2.011  -0.977  -0.017  0.00  0.00    +0.054 A 
ATOM     19  C   UNL     1       2.898   0.125  -0.046  0.00  0.00    +0.147 A 
ATOM     20  N   UNL     1       4.120  -0.366  -0.105  0.00  0.00    -0.167 NA
ENDBRANCH   1  19
TORSDOF 1
