REMARK  Name = ZINC69659208
REMARK  5 active torsions:
REMARK  status: ('A' for Active; 'I' for Inactive)
REMARK    1  A    between atoms: C1_1  and  C2_2
REMARK    2  A    between atoms: C2_2  and  C3_3
REMARK    3  A    between atoms: C8_12  and  C9_14
REMARK    4  A    between atoms: C10_15  and  C16_24
REMARK    5  A    between atoms: C11_17  and  C12_19
REMARK                            x       y       z     vdW  Elec       q    Type
REMARK                         _______ _______ _______ _____ _____    ______ ____
ROOT
ATOM      1  C   UNL     1      -1.341   0.449  -0.244  0.00  0.00    +0.133 A 
ATOM      2  N   UNL     1      -2.024   0.397   0.871  0.00  0.00    -0.134 NA
ATOM      3  N   UNL     1      -3.170  -0.152   0.654  0.00  0.00    -0.133 NA
ATOM      4  C   UNL     1      -3.265  -0.472  -0.599  0.00  0.00    +0.151 A 
ATOM      5  C   UNL     1      -4.412  -1.142  -1.318  0.00  0.00    +0.184 C 
ATOM      6  N   UNL     1      -4.137  -1.028  -2.764  0.00  0.00    -0.287 N 
ATOM      7  C   UNL     1      -5.110  -0.694  -3.635  0.00  0.00    +0.266 C 
ATOM      8  O   UNL     1      -4.837  -0.486  -4.802  0.00  0.00    -0.268 OA
ATOM      9  C   UNL     1      -2.767  -1.297  -3.228  0.00  0.00    +0.130 C 
ATOM     10  C   UNL     1      -1.817  -0.252  -2.631  0.00  0.00    +0.144 C 
ATOM     11  N   UNL     1      -2.113  -0.091  -1.208  0.00  0.00    -0.312 N 
ENDROOT
BRANCH   7  12
ATOM     12  C   UNL     1      -6.504  -0.582  -3.173  0.00  0.00    +0.136 A 
ATOM     13  C   UNL     1      -7.477  -0.105  -4.012  0.00  0.00    +0.019 A 
ATOM     14  C   UNL     1      -7.346   0.359  -5.439  0.00  0.00    +0.054 C 
ATOM     15  S   UNL     1      -8.854  -0.168  -3.046  0.00  0.00    -0.069 S 
ATOM     16  C   UNL     1      -8.099  -0.821  -1.568  0.00  0.00    +0.144 A 
ATOM     17  N   UNL     1      -6.836  -0.945  -1.941  0.00  0.00    -0.231 NA
BRANCH  16  18
ATOM     18  C   UNL     1      -8.720  -1.143  -0.273  0.00  0.00    +0.160 A 
ATOM     19  C   UNL     1     -10.038  -1.000   0.040  0.00  0.00    +0.052 A 
ATOM     20  C   UNL     1     -10.187  -1.425   1.373  0.00  0.00    +0.042 A 
ATOM     21  C   UNL     1      -8.967  -1.803   1.806  0.00  0.00    +0.196 A 
ATOM     22  O   UNL     1      -8.085  -1.637   0.808  0.00  0.00    -0.461 OA
ENDBRANCH  16  18
ENDBRANCH   7  12
BRANCH   1  24
ATOM     23  C   UNL     1      -0.048   2.502  -0.755  0.00  0.00    +0.012 C 
ATOM     24  C   UNL     1       0.046   1.012  -0.419  0.00  0.00    +0.073 C 
ENDBRANCH   1  24
TORSDOF 3
