REMARK  Name = ZINC31820077
REMARK  5 active torsions:
REMARK  status: ('A' for Active; 'I' for Inactive)
REMARK    1  A    between atoms: C1_1  and  C2_2
REMARK    2  A    between atoms: C2_2  and  C3_3
REMARK    3  A    between atoms: C4_4  and  C11_14
REMARK    4  A    between atoms: C14_19  and  C17_22
REMARK    5  A    between atoms: N5_24  and  C18_25
REMARK                            x       y       z     vdW  Elec       q    Type
REMARK                         _______ _______ _______ _____ _____    ______ ____
ROOT
ATOM      1  C   UNL     1      -1.982   0.087   0.110  0.00  0.00    +0.058 A 
ATOM      2  C   UNL     1      -2.166  -0.823   1.131  0.00  0.00    +0.078 A 
ATOM      3  C   UNL     1      -2.830  -1.942   0.579  0.00  0.00    +0.148 A 
ATOM      4  N   UNL     1      -3.027  -1.711  -0.690  0.00  0.00    -0.172 NA
ATOM      5  N   UNL     1      -2.512  -0.449  -1.006  0.00  0.00    -0.218 N 
ATOM      6  C   UNL     1      -2.540   0.153  -2.268  0.00  0.00    +0.154 A 
ATOM      7  C   UNL     1      -2.625  -0.639  -3.406  0.00  0.00    +0.048 A 
ATOM      8  C   UNL     1      -2.652  -0.030  -4.649  0.00  0.00    +0.005 A 
ATOM      9  C   UNL     1      -2.594   1.355  -4.709  0.00  0.00    +0.020 A 
ATOM     10  C   UNL     1      -2.511   2.080  -3.536  0.00  0.00    +0.113 A 
ATOM     11  N   UNL     1      -2.491   1.472  -2.366  0.00  0.00    -0.236 NA
ENDROOT
BRANCH   2  12
ATOM     12  C   UNL     1      -1.748  -0.659   2.535  0.00  0.00    +0.250 C 
ATOM     13  N   UNL     1      -2.629  -0.879   3.531  0.00  0.00    -0.297 N 
ATOM     14  C   UNL     1      -3.979  -1.381   3.238  0.00  0.00    +0.109 C 
ATOM     15  C   UNL     1      -5.004  -0.441   3.882  0.00  0.00    +0.032 C 
ATOM     16  C   UNL     1      -4.695  -0.301   5.374  0.00  0.00    +0.078 C 
ATOM     17  C   UNL     1      -3.302   0.308   5.554  0.00  0.00    +0.032 C 
ATOM     18  C   UNL     1      -2.256  -0.628   4.930  0.00  0.00    +0.109 C 
ATOM     19  O   UNL     1      -0.608  -0.325   2.795  0.00  0.00    -0.270 OA
BRANCH  16  20
ATOM     20  C   UNL     1      -5.721   0.596   6.017  0.00  0.00    +0.216 C 
ATOM     21  N   UNL     1      -5.650   0.864   7.336  0.00  0.00    -0.318 N 
ATOM     22  H   UNL     1      -4.937   0.481   7.871  0.00  0.00    +0.148 HD
ATOM     23  C   UNL     1      -6.647   1.736   7.961  0.00  0.00    +0.128 C 
ATOM     24  O   UNL     1      -6.612   1.075   5.348  0.00  0.00    -0.276 OA
ENDBRANCH  16  20
ENDBRANCH   2  12
BRANCH   1  26
ATOM     25  C   UNL     1      -2.364   2.492   0.578  0.00  0.00    +0.010 C 
ATOM     26  C   UNL     1      -1.317   1.434   0.224  0.00  0.00    +0.053 C 
ENDBRANCH   1  26
TORSDOF 3
