REMARK  Name = ZINC67562796
REMARK  5 active torsions:
REMARK  status: ('A' for Active; 'I' for Inactive)
REMARK    1  A    between atoms: C1_1  and  S1_2
REMARK    2  A    between atoms: S1_2  and  N1_5
REMARK    3  A    between atoms: C5_9  and  N2_11
REMARK    4  A    between atoms: N3_14  and  C8_15
REMARK    5  A    between atoms: C12_19  and  C14_21
REMARK                            x       y       z     vdW  Elec       q    Type
REMARK                         _______ _______ _______ _____ _____    ______ ____
ROOT
ATOM      1  N   UNL     1       4.010  -2.130  -2.290  0.00  0.00    -0.295 N 
ATOM      2  H   UNL     1       4.565  -1.336  -2.246  0.00  0.00    +0.151 HD
ATOM      3  C   UNL     1       4.582  -3.351  -2.306  0.00  0.00    +0.304 C 
ATOM      4  N   UNL     1       5.924  -3.467  -2.261  0.00  0.00    -0.269 N 
ATOM      5  H   UNL     1       6.481  -2.674  -2.296  0.00  0.00    +0.156 HD
ATOM      6  O   UNL     1       3.887  -4.347  -2.360  0.00  0.00    -0.253 OA
ENDROOT
BRANCH   1  11
ATOM      7  N   UNL     1       0.682  -0.504  -1.878  0.00  0.00    -0.180 NA
ATOM      8  C   UNL     1       0.115  -0.613  -3.229  0.00  0.00    +0.109 C 
ATOM      9  C   UNL     1       0.557  -1.944  -3.844  0.00  0.00    +0.019 C 
ATOM     10  C   UNL     1       2.083  -2.042  -3.794  0.00  0.00    +0.025 C 
ATOM     11  C   UNL     1       2.551  -2.004  -2.338  0.00  0.00    +0.090 C 
ATOM     12  C   UNL     1       2.132  -0.668  -1.706  0.00  0.00    +0.131 C 
BRANCH   7  14
ATOM     13  C   UNL     1      -0.344   1.613  -0.449  0.00  0.00    +0.215 C 
ATOM     14  S   UNL     1      -0.292  -0.196  -0.576  0.00  0.00    +0.029 S 
ATOM     15  O   UNL     1      -1.568  -0.697  -0.951  0.00  0.00    -0.158 OA
ATOM     16  O   UNL     1       0.403  -0.744   0.535  0.00  0.00    -0.158 OA
ENDBRANCH   7  14
ENDBRANCH   1  11
BRANCH   4  17
ATOM     17  C   UNL     1       6.514  -4.733  -2.165  0.00  0.00    +0.036 A 
ATOM     18  C   UNL     1       7.739  -4.976  -2.775  0.00  0.00    +0.023 A 
ATOM     19  C   UNL     1       8.326  -6.224  -2.683  0.00  0.00    +0.003 A 
ATOM     20  C   UNL     1       7.698  -7.237  -1.986  0.00  0.00    +0.017 A 
ATOM     21  C   UNL     1       6.468  -7.003  -1.371  0.00  0.00    +0.026 A 
ATOM     22  C   UNL     1       5.879  -5.742  -1.458  0.00  0.00    +0.040 A 
BRANCH  21  23
ATOM     23  C   UNL     1       5.815  -8.052  -0.647  0.00  0.00    -0.070 C 
ATOM     24  C   UNL     1       5.279  -8.912  -0.054  0.00  0.00    +0.009 C 
ENDBRANCH  21  23
ENDBRANCH   4  17
TORSDOF 4
