REMARK  Name = ZINC02782238
REMARK  8 active torsions:
REMARK  status: ('A' for Active; 'I' for Inactive)
REMARK    1  A    between atoms: C1_1  and  C2_2
REMARK    2  A    between atoms: C2_2  and  N1_3
REMARK    3  A    between atoms: C4_5  and  C7_9
REMARK    4  A    between atoms: C5_6  and  C6_8
REMARK    5  A    between atoms: N3_11  and  C8_12
REMARK    6  A    between atoms: N4_14  and  C12_20
REMARK    7  A    between atoms: C10_16  and  C11_17
REMARK    8  A    between atoms: C12_20  and  C13_21
REMARK                            x       y       z     vdW  Elec       q    Type
REMARK                         _______ _______ _______ _____ _____    ______ ____
ROOT
ATOM      1  C   UNL     1      -1.043   3.890   4.291  0.00  0.00    +0.252 C 
ATOM      2  N   UNL     1       0.088   4.589   4.511  0.00  0.00    -0.278 N 
ATOM      3  H   UNL     1       0.825   4.529   3.883  0.00  0.00    +0.155 HD
ATOM      4  O   UNL     1      -1.967   3.965   5.079  0.00  0.00    -0.270 OA
ENDROOT
BRANCH   1   7
ATOM      5  N   UNL     1      -0.704   1.998   1.216  0.00  0.00    -0.271 N 
ATOM      6  C   UNL     1      -0.198   2.847   2.125  0.00  0.00    +0.121 A 
ATOM      7  C   UNL     1      -1.161   3.034   3.096  0.00  0.00    +0.077 A 
ATOM      8  C   UNL     1      -2.277   2.247   2.735  0.00  0.00    +0.072 A 
ATOM      9  C   UNL     1      -3.567   2.133   3.506  0.00  0.00    +0.068 C 
ATOM     10  N   UNL     1      -1.995   1.637   1.617  0.00  0.00    -0.176 NA
BRANCH   5  12
ATOM     11  C   UNL     1       0.002  -0.004   0.002  0.00  0.00    +0.029 C 
ATOM     12  C   UNL     1      -0.019   1.526   0.010  0.00  0.00    +0.140 C 
ENDBRANCH   5  12
ENDBRANCH   1   7
BRANCH   2  13
ATOM     13  C   UNL     1       0.199   5.404   5.648  0.00  0.00    +0.084 A 
ATOM     14  C   UNL     1      -0.736   5.601   6.615  0.00  0.00    +0.132 A 
ATOM     15  N   UNL     1      -0.199   6.460   7.519  0.00  0.00    -0.269 N 
ATOM     16  N   UNL     1       0.987   6.799   7.159  0.00  0.00    -0.165 NA
ATOM     17  C   UNL     1       1.310   6.200   6.029  0.00  0.00    +0.168 A 
BRANCH  17  18
ATOM     18  C   UNL     1       2.585   6.334   5.299  0.00  0.00    +0.263 C 
ATOM     19  N   UNL     1       3.557   7.133   5.782  0.00  0.00    -0.324 N 
ATOM     20  H   UNL     1       4.396   7.221   5.302  0.00  0.00    +0.145 HD
ATOM     21  H   UNL     1       3.419   7.619   6.610  0.00  0.00    +0.145 HD
ATOM     22  O   UNL     1       2.758   5.725   4.261  0.00  0.00    -0.269 OA
ENDBRANCH  17  18
BRANCH  15  23
ATOM     23  C   UNL     1      -0.876   6.936   8.727  0.00  0.00    +0.140 C 
ATOM     24  C   UNL     1      -0.004   6.645   9.950  0.00  0.00    +0.029 C 
ENDBRANCH  15  23
ENDBRANCH   2  13
TORSDOF 5
