REMARK  Name = ZINC51855056
REMARK  9 active torsions:
REMARK  status: ('A' for Active; 'I' for Inactive)
REMARK    1  A    between atoms: C1_1  and  C2_2
REMARK    2  A    between atoms: C3_3  and  N4_21
REMARK    3  A    between atoms: C4_4  and  N3_8
REMARK    4  A    between atoms: N1_5  and  C5_7
REMARK    5  A    between atoms: N3_8  and  C6_9
REMARK    6  A    between atoms: C6_9  and  C7_10
REMARK    7  A    between atoms: C6_9  and  C8_11
REMARK    8  A    between atoms: C11_14  and  C14_17
REMARK    9  A    between atoms: N4_21  and  O2_23
REMARK                            x       y       z     vdW  Elec       q    Type
REMARK                         _______ _______ _______ _____ _____    ______ ____
ROOT
ATOM      1  N   UNL     1       0.388  -3.014  -1.387  0.00  0.00    -0.321 N 
ATOM      2  H   UNL     1       0.279  -2.841  -2.335  0.00  0.00    +0.148 HD
ENDROOT
BRANCH   1   6
ATOM      3  C   UNL     1      -0.256   1.521   0.589  0.00  0.00    +0.070 C 
ATOM      4  C   UNL     1      -0.052   0.035   0.444  0.00  0.00    +0.092 A 
ATOM      5  C   UNL     1       0.058  -0.661  -0.763  0.00  0.00    +0.183 A 
ATOM      6  C   UNL     1       0.235  -1.979  -0.468  0.00  0.00    +0.148 A 
ATOM      7  N   UNL     1       0.235  -2.100   0.879  0.00  0.00    -0.251 N 
ATOM      8  C   UNL     1       0.396  -3.345   1.633  0.00  0.00    +0.174 C 
ATOM      9  N   UNL     1       0.059  -0.822   1.426  0.00  0.00    -0.173 NA
BRANCH   5  10
ATOM     10  N   UNL     1      -0.006  -0.072  -2.119  0.00  0.00    +0.011 N 
ATOM     11  O   UNL     1       1.005   0.310  -2.661  0.00  0.00    -0.130 OA
BRANCH  10  12
ATOM     12  O   UNL     1      -1.069   0.027  -2.686  0.00  0.00    -0.396 OA
ATOM     13  H   UNL     1      -1.853  -0.270  -2.266  0.00  0.00    +0.329 HD
ENDBRANCH  10  12
ENDBRANCH   5  10
ENDBRANCH   1   6
BRANCH   1  14
ATOM     14  C   UNL     1       0.715  -4.364  -0.921  0.00  0.00    +0.099 C 
ATOM     15  C   UNL     1      -0.569  -5.189  -0.809  0.00  0.00    +0.033 C 
BRANCH  14  16
ATOM     16  C   UNL     1       1.650  -5.022  -1.903  0.00  0.00    -0.027 A 
ATOM     17  C   UNL     1       1.463  -4.843  -3.261  0.00  0.00    +0.006 A 
ATOM     18  C   UNL     1       2.321  -5.447  -4.162  0.00  0.00    +0.013 A 
ATOM     19  C   UNL     1       3.366  -6.228  -3.704  0.00  0.00    +0.055 A 
ATOM     20  C   UNL     1       3.553  -6.406  -2.346  0.00  0.00    +0.013 A 
ATOM     21  C   UNL     1       2.697  -5.799  -1.446  0.00  0.00    +0.006 A 
BRANCH  19  22
ATOM     22  C   UNL     1       4.300  -6.886  -4.686  0.00  0.00    +0.417 C 
ATOM     23  F   UNL     1       3.611  -7.164  -5.872  0.00  0.00    -0.166 F 
ATOM     24  F   UNL     1       4.786  -8.079  -4.139  0.00  0.00    -0.166 F 
ATOM     25  F   UNL     1       5.371  -6.028  -4.959  0.00  0.00    -0.166 F 
ENDBRANCH  19  22
ENDBRANCH  14  16
ENDBRANCH   1  14
TORSDOF 6
