REMARK  Name = ZINC67868591
REMARK  2 active torsions:
REMARK  status: ('A' for Active; 'I' for Inactive)
REMARK    1  A    between atoms: C1_1  and  N1_2
REMARK    2  A    between atoms: C7_9  and  C8_11
REMARK                            x       y       z     vdW  Elec       q    Type
REMARK                         _______ _______ _______ _____ _____    ______ ____
ROOT
ATOM      1  C   UNL     1      -0.018   1.461   0.010  0.00  0.00    +0.132 C 
ATOM      2  N   UNL     1       0.002  -0.004   0.002  0.00  0.00    -0.303 N 
ATOM      3  C   UNL     1      -1.249  -0.763   0.004  0.00  0.00    +0.130 C 
ATOM      4  C   UNL     1      -1.407  -1.502   1.332  0.00  0.00    +0.094 C 
ATOM      5  C   UNL     1      -0.523  -0.813   2.393  0.00  0.00    +0.026 C 
ATOM      6  C   UNL     1       0.802  -1.603   2.384  0.00  0.00    +0.025 C 
ATOM      7  C   UNL     1       0.605  -2.697   1.312  0.00  0.00    +0.086 C 
ATOM      8  C   UNL     1       1.175  -2.188  -0.012  0.00  0.00    +0.118 C 
ATOM      9  N   UNL     1      -0.870  -2.869   1.192  0.00  0.00    -0.288 N 
ATOM     10  C   UNL     1      -1.566  -4.008   1.008  0.00  0.00    +0.267 C 
ATOM     11  O   UNL     1      -2.779  -3.975   0.940  0.00  0.00    -0.268 OA
ATOM     12  C   UNL     1       1.181  -0.676  -0.013  0.00  0.00    +0.217 C 
ATOM     13  O   UNL     1       2.234  -0.074  -0.020  0.00  0.00    -0.276 OA
ENDROOT
BRANCH  10  14
ATOM     14  C   UNL     1      -0.855  -5.296   0.888  0.00  0.00    +0.142 A 
ATOM     15  C   UNL     1      -1.573  -6.459   0.694  0.00  0.00    +0.119 A 
ATOM     16  N   UNL     1      -0.927  -7.638   0.583  0.00  0.00    -0.326 N 
ATOM     17  H   UNL     1      -1.427  -8.458   0.447  0.00  0.00    +0.168 HD
ATOM     18  C   UNL     1       0.419  -7.666   0.665  0.00  0.00    +0.267 A 
ATOM     19  C   UNL     1       1.131  -6.456   0.865  0.00  0.00    +0.181 A 
ATOM     20  O   UNL     1       1.019  -8.723   0.568  0.00  0.00    -0.266 OA
ATOM     21  N   UNL     1       0.484  -5.326   0.963  0.00  0.00    -0.244 NA
ENDBRANCH  10  14
TORSDOF 1
