REMARK  Name = ZINC67909110
REMARK  6 active torsions:
REMARK  status: ('A' for Active; 'I' for Inactive)
REMARK    1  A    between atoms: N2_4  and  C3_6
REMARK    2  A    between atoms: C3_6  and  C4_7
REMARK    3  A    between atoms: C4_7  and  C5_8
REMARK    4  A    between atoms: N4_10  and  C6_11
REMARK    5  A    between atoms: C6_11  and  C7_12
REMARK    6  A    between atoms: N5_16  and  C12_18
REMARK                            x       y       z     vdW  Elec       q    Type
REMARK                         _______ _______ _______ _____ _____    ______ ____
ROOT
ATOM      1  C   UNL     1       1.389  -6.966   3.271  0.00  0.00    +0.052 C 
ATOM      2  C   UNL     1       1.894  -6.355   4.581  0.00  0.00    +0.015 C 
ATOM      3  C   UNL     1       1.370  -7.187   5.756  0.00  0.00    +0.051 C 
ATOM      4  C   UNL     1       1.817  -8.640   5.584  0.00  0.00    +0.131 C 
ATOM      5  N   UNL     1       1.281  -9.175   4.326  0.00  0.00    +0.238 N 
ATOM      6  H   UNL     1       0.276  -9.088   4.326  0.00  0.00    +0.204 HD
ATOM      7  C   UNL     1       1.834  -8.428   3.190  0.00  0.00    +0.136 C 
ENDROOT
BRANCH   5   8
ATOM      8  C   UNL     1       1.647 -10.592   4.203  0.00  0.00    +0.064 C 
ATOM      9  C   UNL     1       1.089 -11.151   2.893  0.00  0.00    +0.054 C 
ATOM     10  C   UNL     1       1.470 -12.627   2.764  0.00  0.00    +0.005 C 
ATOM     11  C   UNL     1       0.885 -13.409   3.942  0.00  0.00    +0.000 C 
ATOM     12  C   UNL     1       1.443 -12.850   5.253  0.00  0.00    +0.005 C 
ATOM     13  C   UNL     1       1.062 -11.374   5.381  0.00  0.00    +0.054 C 
ENDBRANCH   5   8
BRANCH   1  14
ATOM     14  C   UNL     1       1.970  -6.189   2.088  0.00  0.00    +0.113 C 
BRANCH  14  16
ATOM     15  C   UNL     1       1.827  -3.947   1.145  0.00  0.00    +0.215 C 
ATOM     16  N   UNL     1       1.449  -4.819   2.100  0.00  0.00    -0.315 N 
ATOM     17  H   UNL     1       0.833  -4.541   2.796  0.00  0.00    +0.149 HD
ATOM     18  O   UNL     1       2.597  -4.295   0.276  0.00  0.00    -0.276 OA
BRANCH  15  19
ATOM     19  C   UNL     1       1.291  -2.538   1.158  0.00  0.00    +0.119 C 
BRANCH  19  20
ATOM     20  C   UNL     1       1.872  -1.761  -0.025  0.00  0.00    +0.154 C 
BRANCH  20  24
ATOM     21  C   UNL     1      -0.016   1.303   0.009  0.00  0.00    +0.244 A 
ATOM     22  N   UNL     1       1.238   1.753  -0.000  0.00  0.00    -0.223 NA
ATOM     23  C   UNL     1       2.072   0.744  -0.014  0.00  0.00    +0.219 A 
ATOM     24  N   UNL     1       1.352  -0.392  -0.013  0.00  0.00    -0.252 N 
ATOM     25  N   UNL     1       0.002  -0.004   0.002  0.00  0.00    -0.158 NA
ENDBRANCH  20  24
ENDBRANCH  19  20
ENDBRANCH  15  19
ENDBRANCH  14  16
ENDBRANCH   1  14
TORSDOF 6
