REMARK  Name = ZINC02796227
REMARK  7 active torsions:
REMARK  status: ('A' for Active; 'I' for Inactive)
REMARK    1  A    between atoms: C1_1  and  C2_2
REMARK    2  A    between atoms: C7_7  and  C8_8
REMARK    3  A    between atoms: N1_10  and  C9_11
REMARK    4  A    between atoms: C9_11  and  C10_12
REMARK    5  A    between atoms: C10_12  and  N2_13
REMARK    6  A    between atoms: C11_14  and  C15_20
REMARK    7  A    between atoms: C13_16  and  C14_18
REMARK                            x       y       z     vdW  Elec       q    Type
REMARK                         _______ _______ _______ _____ _____    ______ ____
ROOT
ATOM      1  C   UNL     1      -0.778   1.016   3.760  0.00  0.00    +0.244 C 
ATOM      2  N   UNL     1      -0.459   0.537   2.541  0.00  0.00    -0.310 N 
ATOM      3  H   UNL     1       0.342   0.003   2.424  0.00  0.00    +0.149 HD
ATOM      4  O   UNL     1      -1.782   1.685   3.906  0.00  0.00    -0.270 OA
ENDROOT
BRANCH   1  11
ATOM      5  C   UNL     1      -1.329   2.264   6.311  0.00  0.00    +0.044 C 
ATOM      6  C   UNL     1      -0.162   1.323   6.154  0.00  0.00    -0.038 A 
ATOM      7  C   UNL     1       0.655   1.050   7.231  0.00  0.00    +0.004 A 
ATOM      8  C   UNL     1       1.726   0.186   7.089  0.00  0.00    +0.000 A 
ATOM      9  C   UNL     1       1.986  -0.408   5.867  0.00  0.00    +0.001 A 
ATOM     10  C   UNL     1       1.174  -0.147   4.783  0.00  0.00    +0.013 A 
ATOM     11  C   UNL     1       0.094   0.728   4.918  0.00  0.00    +0.040 A 
ENDBRANCH   1  11
BRANCH   2  12
ATOM     12  C   UNL     1      -1.323   0.823   1.393  0.00  0.00    +0.127 C 
BRANCH  12  13
ATOM     13  C   UNL     1      -0.740   0.168   0.140  0.00  0.00    +0.162 C 
BRANCH  13  14
ATOM     14  N   UNL     1      -1.603   0.454  -1.008  0.00  0.00    -0.266 N 
ATOM     15  C   UNL     1      -1.498   1.514  -1.837  0.00  0.00    +0.050 A 
ATOM     16  C   UNL     1      -0.472   2.615  -1.746  0.00  0.00    +0.066 C 
ATOM     17  C   UNL     1      -2.479   1.412  -2.764  0.00  0.00    +0.061 A 
ATOM     18 BR   UNL     1      -2.806   2.627  -4.176  0.00  0.00    -0.047 Br
ATOM     19  C   UNL     1      -3.208   0.249  -2.493  0.00  0.00    +0.074 A 
ATOM     20  C   UNL     1      -4.392  -0.254  -3.277  0.00  0.00    +0.068 C 
ATOM     21  N   UNL     1      -2.681  -0.328  -1.444  0.00  0.00    -0.175 NA
ENDBRANCH  13  14
ENDBRANCH  12  13
ENDBRANCH   2  12
TORSDOF 4
