REMARK  Name = ZINC71479656
REMARK  4 active torsions:
REMARK  status: ('A' for Active; 'I' for Inactive)
REMARK    1  A    between atoms: C1_1  and  N1_2
REMARK    2  A    between atoms: N1_2  and  C2_3
REMARK    3  A    between atoms: C2_3  and  C3_4
REMARK    4  A    between atoms: C9_14  and  C10_16
REMARK                            x       y       z     vdW  Elec       q    Type
REMARK                         _______ _______ _______ _____ _____    ______ ____
ROOT
ATOM      1  C   UNL     1      -1.266   0.454   0.575  0.00  0.00    +0.131 C 
ATOM      2  N   UNL     1       0.002  -0.004   0.002  0.00  0.00    -0.312 N 
ATOM      3  C   UNL     1       0.004  -0.779  -1.146  0.00  0.00    +0.129 A 
ATOM      4  C   UNL     1       0.043  -0.178  -2.409  0.00  0.00    +0.024 A 
ATOM      5  C   UNL     1       0.045  -0.982  -3.526  0.00  0.00    +0.095 A 
ATOM      6  C   UNL     1       0.095  -0.407  -4.915  0.00  0.00    +0.186 C 
ATOM      7  N   UNL     1      -0.303   1.004  -4.901  0.00  0.00    +0.232 N 
ATOM      8  H   UNL     1      -1.276   1.078  -4.643  0.00  0.00    +0.202 HD
ATOM      9  H   UNL     1      -0.166   1.403  -5.818  0.00  0.00    +0.202 HD
ATOM     10  C   UNL     1       0.522   1.728  -3.922  0.00  0.00    +0.134 C 
ATOM     11  N   UNL     1       0.006  -2.300  -3.371  0.00  0.00    -0.226 NA
ATOM     12  C   UNL     1      -0.031  -2.845  -2.164  0.00  0.00    +0.162 A 
ATOM     13  C   UNL     1       0.080   1.323  -2.515  0.00  0.00    +0.091 C 
ATOM     14  N   UNL     1      -0.027  -2.104  -1.065  0.00  0.00    -0.212 NA
ENDROOT
BRANCH  12  15
ATOM     15  C   UNL     1      -0.073  -4.323  -2.040  0.00  0.00    +0.022 A 
ATOM     16  C   UNL     1      -0.068  -5.139  -3.174  0.00  0.00    +0.031 A 
ATOM     17  C   UNL     1      -0.108  -6.510  -3.013  0.00  0.00    +0.111 A 
ATOM     18  N   UNL     1      -0.151  -7.049  -1.810  0.00  0.00    -0.263 NA
ATOM     19  C   UNL     1      -0.158  -6.315  -0.715  0.00  0.00    +0.111 A 
ATOM     20  C   UNL     1      -0.113  -4.937  -0.785  0.00  0.00    +0.031 A 
ENDBRANCH  12  15
BRANCH   2  21
ATOM     21  C   UNL     1       1.269   0.357   0.644  0.00  0.00    +0.163 C 
BRANCH  21  22
ATOM     22  C   UNL     1       1.636  -0.696   1.657  0.00  0.00    +0.080 A 
ATOM     23  C   UNL     1       2.487  -1.784   1.438  0.00  0.00    +0.045 A 
ATOM     24  C   UNL     1       2.562  -2.492   2.589  0.00  0.00    +0.105 A 
ATOM     25  N   UNL     1       1.785  -1.875   3.503  0.00  0.00    -0.284 N 
ATOM     26  H   UNL     1       1.646  -2.160   4.420  0.00  0.00    +0.188 HD
ATOM     27  N   UNL     1       1.219  -0.746   2.896  0.00  0.00    -0.177 NA
ENDBRANCH  21  22
ENDBRANCH   2  21
TORSDOF 3
