REMARK  Name = ZINC71584721
REMARK  4 active torsions:
REMARK  status: ('A' for Active; 'I' for Inactive)
REMARK    1  A    between atoms: C1_1  and  C2_2
REMARK    2  A    between atoms: C5_5  and  C8_8
REMARK    3  A    between atoms: C8_8  and  C9_9
REMARK    4  A    between atoms: C8_8  and  N2_14
REMARK                            x       y       z     vdW  Elec       q    Type
REMARK                         _______ _______ _______ _____ _____    ______ ____
ROOT
ATOM      1  C   UNL     1       0.059  -4.275  -0.021  0.00  0.00    +0.145 C 
ENDROOT
BRANCH   1   6
ATOM      2  C   UNL     1       0.354   1.473  -0.537  0.00  0.00    +0.044 C 
ATOM      3  C   UNL     1       0.277  -0.026  -0.403  0.00  0.00    -0.050 A 
ATOM      4  C   UNL     1       0.221  -0.820  -1.533  0.00  0.00    +0.004 A 
ATOM      5  C   UNL     1       0.150  -2.195  -1.410  0.00  0.00    +0.009 A 
ATOM      6  C   UNL     1       0.137  -2.776  -0.156  0.00  0.00    +0.006 A 
ATOM      7  C   UNL     1       0.195  -1.983   0.975  0.00  0.00    +0.009 A 
ATOM      8  C   UNL     1       0.269  -0.608   0.851  0.00  0.00    +0.004 A 
ENDBRANCH   1   6
BRANCH   1   9
ATOM      9  N   UNL     1       0.943  -4.716   1.066  0.00  0.00    +0.245 N 
ATOM     10  H   UNL     1       0.570  -4.401   1.950  0.00  0.00    +0.204 HD
ATOM     11  C   UNL     1       2.280  -4.143   0.871  0.00  0.00    +0.132 C 
ATOM     12  C   UNL     1       3.182  -4.532   2.044  0.00  0.00    +0.051 C 
ATOM     13  C   UNL     1       3.285  -6.059   2.117  0.00  0.00    +0.010 C 
ATOM     14  C   UNL     1       1.878  -6.649   2.247  0.00  0.00    +0.051 C 
ATOM     15  C   UNL     1       1.024  -6.181   1.066  0.00  0.00    +0.132 C 
ENDBRANCH   1   9
BRANCH   1  16
ATOM     16  C   UNL     1      -1.381  -4.685   0.293  0.00  0.00    +0.117 C 
ATOM     17  C   UNL     1      -1.527  -6.217   0.178  0.00  0.00    +0.065 C 
ATOM     18  C   UNL     1      -2.930  -6.387  -0.462  0.00  0.00    +0.056 C 
ATOM     19  C   UNL     1      -2.986  -5.171  -1.419  0.00  0.00    +0.130 C 
ATOM     20  N   UNL     1      -2.300  -4.080  -0.688  0.00  0.00    +0.233 N 
ATOM     21  H   UNL     1      -1.778  -3.511  -1.336  0.00  0.00    +0.202 HD
ATOM     22  H   UNL     1      -2.981  -3.510  -0.208  0.00  0.00    +0.202 HD
ENDBRANCH   1  16
TORSDOF 3
