REMARK  Name = ZINC48343076
REMARK  8 active torsions:
REMARK  status: ('A' for Active; 'I' for Inactive)
REMARK    1  A    between atoms: C1_1  and  C2_2
REMARK    2  A    between atoms: C2_2  and  C3_3
REMARK    3  A    between atoms: C2_2  and  O1_22
REMARK    4  A    between atoms: C3_3  and  N1_4
REMARK    5  A    between atoms: N3_13  and  C11_14
REMARK    6  A    between atoms: C11_14  and  C12_15
REMARK    7  A    between atoms: C12_15  and  C13_16
REMARK    8  A    between atoms: C13_16  and  N4_17
REMARK                            x       y       z     vdW  Elec       q    Type
REMARK                         _______ _______ _______ _____ _____    ______ ____
ROOT
ATOM      1  N   UNL     1       0.762  -1.976   1.234  0.00  0.00    -0.314 N 
ATOM      2  H   UNL     1       0.342  -2.462   0.507  0.00  0.00    +0.149 HD
ATOM      3  C   UNL     1       1.378  -2.663   2.258  0.00  0.00    +0.174 A 
ATOM      4  N   UNL     1       1.969  -2.108   3.287  0.00  0.00    -0.327 N 
ATOM      5  H   UNL     1       2.041  -1.153   3.443  0.00  0.00    +0.169 HD
ATOM      6  C   UNL     1       2.468  -3.074   4.102  0.00  0.00    +0.065 A 
ATOM      7  C   UNL     1       3.175  -3.043   5.307  0.00  0.00    +0.028 A 
ATOM      8  C   UNL     1       3.553  -4.222   5.909  0.00  0.00    +0.002 A 
ATOM      9  C   UNL     1       3.239  -5.442   5.327  0.00  0.00    +0.002 A 
ATOM     10  C   UNL     1       2.542  -5.489   4.137  0.00  0.00    +0.028 A 
ATOM     11  C   UNL     1       2.152  -4.312   3.518  0.00  0.00    +0.068 A 
ATOM     12  N   UNL     1       1.458  -4.022   2.355  0.00  0.00    -0.313 N 
ENDROOT
BRANCH   1  13
ATOM     13  C   UNL     1       0.742  -0.511   1.242  0.00  0.00    +0.135 C 
BRANCH  13  15
ATOM     14  C   UNL     1      -0.019   1.526   0.010  0.00  0.00    +0.039 C 
ATOM     15  C   UNL     1       0.002  -0.004   0.002  0.00  0.00    +0.128 C 
BRANCH  15  16
ATOM     16  O   UNL     1       0.671  -0.465  -1.174  0.00  0.00    -0.391 OA
ATOM     17  H   UNL     1       1.588  -0.167  -1.247  0.00  0.00    +0.210 HD
ENDBRANCH  15  16
ENDBRANCH  13  15
ENDBRANCH   1  13
BRANCH  12  18
ATOM     18  C   UNL     1       0.913  -4.994   1.403  0.00  0.00    +0.127 C 
BRANCH  18  19
ATOM     19  C   UNL     1       1.965  -5.312   0.340  0.00  0.00    +0.045 C 
BRANCH  19  20
ATOM     20  C   UNL     1       1.396  -6.327  -0.654  0.00  0.00    +0.147 C 
BRANCH  20  21
ATOM     21  N   UNL     1       2.404  -6.631  -1.673  0.00  0.00    -0.252 N 
ATOM     22  C   UNL     1       2.865  -7.848  -2.011  0.00  0.00    +0.219 A 
ATOM     23  N   UNL     1       3.753  -7.696  -2.960  0.00  0.00    -0.223 NA
ATOM     24  C   UNL     1       3.885  -6.402  -3.252  0.00  0.00    +0.244 A 
ATOM     25  N   UNL     1       3.075  -5.711  -2.494  0.00  0.00    -0.158 NA
ENDBRANCH  20  21
ENDBRANCH  19  20
ENDBRANCH  18  19
ENDBRANCH  12  18
TORSDOF 7
