REMARK  Name = ZINC65292537
REMARK  5 active torsions:
REMARK  status: ('A' for Active; 'I' for Inactive)
REMARK    1  A    between atoms: C1_1  and  C2_2
REMARK    2  A    between atoms: C7_7  and  C8_8
REMARK    3  A    between atoms: C11_13  and  C13_15
REMARK    4  A    between atoms: C13_15  and  C14_16
REMARK    5  A    between atoms: N4_24  and  C20_25
REMARK                            x       y       z     vdW  Elec       q    Type
REMARK                         _______ _______ _______ _____ _____    ______ ____
ROOT
ATOM      1  C   UNL     1       0.266   0.365   2.396  0.00  0.00    +0.247 C 
ATOM      2  N   UNL     1       0.390  -0.280   3.573  0.00  0.00    -0.297 N 
ATOM      3  C   UNL     1       0.540  -1.732   3.743  0.00  0.00    +0.108 C 
ATOM      4  C   UNL     1       0.673  -2.006   5.256  0.00  0.00    +0.024 C 
ATOM      5  C   UNL     1       1.158  -0.641   5.814  0.00  0.00    +0.015 C 
ATOM      6  C   UNL     1       0.402   0.355   4.903  0.00  0.00    +0.112 C 
ATOM      7  O   UNL     1       0.240   1.580   2.368  0.00  0.00    -0.270 OA
ENDROOT
BRANCH   1  14
ATOM      8  C   UNL     1      -1.840   0.983   0.510  0.00  0.00    +0.044 C 
ATOM      9  C   UNL     1      -0.851  -0.116   0.222  0.00  0.00    -0.038 A 
ATOM     10  C   UNL     1      -0.940  -0.835  -0.953  0.00  0.00    +0.004 A 
ATOM     11  C   UNL     1      -0.032  -1.845  -1.219  0.00  0.00    +0.000 A 
ATOM     12  C   UNL     1       0.970  -2.141  -0.312  0.00  0.00    +0.001 A 
ATOM     13  C   UNL     1       1.070  -1.429   0.866  0.00  0.00    +0.013 A 
ATOM     14  C   UNL     1       0.161  -0.406   1.138  0.00  0.00    +0.040 A 
ENDBRANCH   1  14
BRANCH   5  15
ATOM     15  C   UNL     1       0.747  -0.471   7.278  0.00  0.00    +0.079 C 
BRANCH  15  16
ATOM     16  C   UNL     1       1.329   0.810   7.817  0.00  0.00    +0.112 A 
ATOM     17  N   UNL     1       0.703   1.950   7.867  0.00  0.00    -0.231 NA
ATOM     18  C   UNL     1       1.517   2.890   8.409  0.00  0.00    +0.108 A 
ATOM     19  C   UNL     1       1.370   4.251   8.695  0.00  0.00    +0.033 A 
ATOM     20  C   UNL     1       2.439   4.917   9.263  0.00  0.00    +0.022 A 
ATOM     21  C   UNL     1       3.611   4.227   9.531  0.00  0.00    +0.113 A 
ATOM     22  N   UNL     1       3.730   2.945   9.254  0.00  0.00    -0.236 NA
ATOM     23  C   UNL     1       2.737   2.259   8.709  0.00  0.00    +0.160 A 
ATOM     24  N   UNL     1       2.584   0.943   8.327  0.00  0.00    -0.316 N 
ATOM     25  C   UNL     1       3.588  -0.117   8.447  0.00  0.00    +0.152 C 
ENDBRANCH  15  16
ENDBRANCH   5  15
TORSDOF 3
