REMARK  Name = ZINC65575740
REMARK  9 active torsions:
REMARK  status: ('A' for Active; 'I' for Inactive)
REMARK    1  A    between atoms: C1_1  and  N1_2
REMARK    2  A    between atoms: N1_2  and  C2_3
REMARK    3  A    between atoms: N1_2  and  C3_4
REMARK    4  A    between atoms: C3_4  and  C4_5
REMARK    5  A    between atoms: C3_4  and  C11_12
REMARK    6  A    between atoms: C4_5  and  C5_6
REMARK    7  A    between atoms: N2_14  and  N3_15
REMARK    8  A    between atoms: C12_16  and  C13_18
REMARK    9  A    between atoms: C18_23  and  O3_24
REMARK                            x       y       z     vdW  Elec       q    Type
REMARK                         _______ _______ _______ _____ _____    ______ ____
ROOT
ATOM      1  C   UNL     1      -1.472  -1.975   0.375  0.00  0.00    +0.278 C 
ATOM      2  N   UNL     1      -2.564  -2.493   0.971  0.00  0.00    -0.229 N 
ATOM      3  H   UNL     1      -3.287  -1.909   1.250  0.00  0.00    +0.173 HD
ATOM      4  O   UNL     1      -0.568  -2.705   0.026  0.00  0.00    -0.268 OA
ENDROOT
BRANCH   2   5
ATOM      5  N   UNL     1      -2.656  -3.874   1.187  0.00  0.00    -0.230 N 
ATOM      6  H   UNL     1      -1.934  -4.458   0.907  0.00  0.00    +0.173 HD
ATOM      7  C   UNL     1      -3.749  -4.392   1.782  0.00  0.00    +0.264 C 
ATOM      8  O   UNL     1      -4.654  -3.660   2.132  0.00  0.00    -0.269 OA
BRANCH   7   9
ATOM      9  C   UNL     1      -3.845  -5.846   2.010  0.00  0.00    +0.079 A 
ATOM     10  C   UNL     1      -2.804  -6.690   1.614  0.00  0.00    +0.017 A 
ATOM     11  C   UNL     1      -2.901  -8.048   1.829  0.00  0.00    +0.001 A 
ATOM     12  C   UNL     1      -4.026  -8.581   2.437  0.00  0.00    +0.004 A 
ATOM     13  C   UNL     1      -5.062  -7.759   2.832  0.00  0.00    +0.046 A 
ATOM     14  C   UNL     1      -4.979  -6.389   2.629  0.00  0.00    +0.129 A 
BRANCH  14  15
ATOM     15  O   UNL     1      -5.994  -5.579   3.023  0.00  0.00    -0.506 OA
ATOM     16  H   UNL     1      -6.672  -5.442   2.348  0.00  0.00    +0.292 HD
ENDBRANCH  14  15
ENDBRANCH   7   9
ENDBRANCH   2   5
BRANCH   1  17
ATOM     17  C   UNL     1      -1.373  -0.489   0.143  0.00  0.00    +0.157 C 
BRANCH  17  19
ATOM     18  C   UNL     1       0.120   1.309  -0.396  0.00  0.00    +0.191 C 
ATOM     19  N   UNL     1       0.034  -0.118  -0.058  0.00  0.00    +0.240 N 
ATOM     20  H   UNL     1       0.422  -0.665  -0.811  0.00  0.00    +0.204 HD
ATOM     21  C   UNL     1       0.789  -0.376   1.175  0.00  0.00    +0.191 C 
ENDBRANCH  17  19
BRANCH  17  22
ATOM     22  C   UNL     1      -2.182  -0.113  -1.100  0.00  0.00    +0.099 C 
BRANCH  22  23
ATOM     23  C   UNL     1      -3.639  -0.415  -0.861  0.00  0.00    -0.042 A 
ATOM     24  C   UNL     1      -4.177  -1.612  -1.297  0.00  0.00    +0.004 A 
ATOM     25  C   UNL     1      -5.513  -1.890  -1.079  0.00  0.00    +0.000 A 
ATOM     26  C   UNL     1      -6.312  -0.972  -0.424  0.00  0.00    +0.000 A 
ATOM     27  C   UNL     1      -5.774   0.225   0.013  0.00  0.00    +0.000 A 
ATOM     28  C   UNL     1      -4.437   0.501  -0.202  0.00  0.00    +0.004 A 
ENDBRANCH  22  23
ENDBRANCH  17  22
ENDBRANCH   1  17
TORSDOF 7
