REMARK  Name = ZINC50764925
REMARK  10 active torsions:
REMARK  status: ('A' for Active; 'I' for Inactive)
REMARK    1  A    between atoms: C1_1  and  C2_2
REMARK    2  A    between atoms: C2_2  and  C3_3
REMARK    3  A    between atoms: C3_3  and  C4_4
REMARK    4  A    between atoms: C4_4  and  N1_5
REMARK    5  A    between atoms: C5_6  and  C6_8
REMARK    6  A    between atoms: C11_14  and  C12_16
REMARK    7  A    between atoms: C12_16  and  C13_17
REMARK    8  A    between atoms: C13_17  and  C14_18
REMARK    9  A    between atoms: C14_18  and  C15_19
REMARK   10  A    between atoms: C14_18  and  C16_20
REMARK                            x       y       z     vdW  Elec       q    Type
REMARK                         _______ _______ _______ _____ _____    ______ ____
ROOT
ATOM      1  C   UNL     1       2.343  -4.350   3.846  0.00  0.00    +0.092 C 
ATOM      2  C   UNL     1       3.780  -3.824   3.833  0.00  0.00    +0.016 C 
ATOM      3  C   UNL     1       4.512  -4.303   5.089  0.00  0.00    +0.020 C 
ATOM      4  C   UNL     1       4.558  -5.834   5.096  0.00  0.00    +0.108 C 
ATOM      5  N   UNL     1       3.188  -6.349   4.962  0.00  0.00    -0.301 N 
ATOM      6  C   UNL     1       2.696  -7.233   5.852  0.00  0.00    +0.216 C 
ATOM      7  O   UNL     1       1.564  -7.650   5.730  0.00  0.00    -0.276 OA
ATOM      8  C   UNL     1       2.365  -5.881   3.838  0.00  0.00    +0.120 C 
ENDROOT
BRANCH   1  11
ATOM      9  N   UNL     1       1.471  -2.526   2.420  0.00  0.00    -0.315 N 
ATOM     10  H   UNL     1       1.837  -1.894   3.058  0.00  0.00    +0.149 HD
ATOM     11  C   UNL     1       1.615  -3.850   2.625  0.00  0.00    +0.218 C 
ATOM     12  O   UNL     1       1.157  -4.641   1.827  0.00  0.00    -0.275 OA
BRANCH   9  13
ATOM     13  C   UNL     1       0.763  -2.041   1.233  0.00  0.00    +0.104 C 
BRANCH  13  14
ATOM     14  C   UNL     1       0.742  -0.511   1.242  0.00  0.00    +0.018 C 
BRANCH  14  16
ATOM     15  C   UNL     1      -0.019   1.526   0.010  0.00  0.00    +0.004 C 
ATOM     16  C   UNL     1       0.002  -0.004   0.002  0.00  0.00    -0.002 C 
ENDBRANCH  14  16
ENDBRANCH  13  14
ENDBRANCH   9  13
ENDBRANCH   1  11
BRANCH   6  17
ATOM     17  C   UNL     1       3.553  -7.703   6.999  0.00  0.00    +0.096 C 
BRANCH  17  18
ATOM     18  C   UNL     1       2.762  -8.695   7.854  0.00  0.00    +0.012 C 
BRANCH  18  19
ATOM     19  C   UNL     1       3.632  -9.172   9.018  0.00  0.00    -0.017 C 
ATOM     20  C   UNL     1       2.888 -10.256   9.800  0.00  0.00    +0.007 C 
ATOM     21  C   UNL     1       3.937  -7.993   9.944  0.00  0.00    +0.007 C 
ENDBRANCH  18  19
ENDBRANCH  17  18
ENDBRANCH   6  17
TORSDOF 7
