REMARK  Name = ZINC06661860
REMARK  2 active torsions:
REMARK  status: ('A' for Active; 'I' for Inactive)
REMARK    1  A    between atoms: C1_1  and  N1_2
REMARK    2  A    between atoms: N3_21  and  C18_24
REMARK                            x       y       z     vdW  Elec       q    Type
REMARK                         _______ _______ _______ _____ _____    ______ ____
ROOT
ATOM      1  C   UNL     1       5.399   7.544   0.715  0.00  0.00    +0.140 C 
ATOM      2  N   UNL     1       4.197   6.788   1.077  0.00  0.00    -0.255 N 
ATOM      3  C   UNL     1       3.521   6.141   0.117  0.00  0.00    +0.238 C 
ATOM      4  C   UNL     1       2.283   5.347   0.418  0.00  0.00    +0.146 C 
ATOM      5  C   UNL     1       1.957   5.402   1.883  0.00  0.00    +0.238 C 
ATOM      6  N   UNL     1       2.715   6.087   2.751  0.00  0.00    -0.255 N 
ATOM      7  C   UNL     1       2.341   6.098   4.168  0.00  0.00    +0.140 C 
ATOM      8  O   UNL     1       0.981   4.811   2.292  0.00  0.00    -0.274 OA
ATOM      9  C   UNL     1       2.489   3.890  -0.006  0.00  0.00    +0.064 C 
ATOM     10  C   UNL     1       1.164   3.170   0.009  0.00  0.00    -0.025 A 
ATOM     11  C   UNL     1       1.173   1.784   0.000  0.00  0.00    +0.005 A 
ATOM     12  C   UNL     1      -0.013   1.076   0.008  0.00  0.00    +0.000 A 
ATOM     13  C   UNL     1      -1.219   1.752   0.017  0.00  0.00    +0.002 A 
ATOM     14  C   UNL     1      -1.235   3.130   0.032  0.00  0.00    +0.023 A 
ATOM     15  C   UNL     1      -0.040   3.852   0.027  0.00  0.00    +0.033 A 
ATOM     16  N   UNL     1      -0.124   5.242   0.044  0.00  0.00    -0.325 N 
ATOM     17  C   UNL     1      -1.287   5.717  -0.717  0.00  0.00    +0.105 C 
ATOM     18  C   UNL     1      -1.474   7.217  -0.477  0.00  0.00    +0.019 C 
ATOM     19  C   UNL     1      -0.210   7.962  -0.915  0.00  0.00    +0.003 C 
ATOM     20  C   UNL     1       0.991   7.414  -0.140  0.00  0.00    +0.024 C 
ATOM     21  C   UNL     1       1.105   5.908  -0.388  0.00  0.00    +0.098 C 
ATOM     22  O   UNL     1       3.921   6.199  -1.026  0.00  0.00    -0.274 OA
ATOM     23  C   UNL     1       3.806   6.763   2.361  0.00  0.00    +0.148 C 
ATOM     24  S   UNL     1       4.724   7.613   3.529  0.00  0.00    -0.018 S 
ENDROOT
TORSDOF 0
