REMARK  Name = ZINC71467464
REMARK  9 active torsions:
REMARK  status: ('A' for Active; 'I' for Inactive)
REMARK    1  A    between atoms: C1_1  and  C2_2
REMARK    2  A    between atoms: C2_2  and  C3_3
REMARK    3  A    between atoms: C2_2  and  C4_4
REMARK    4  A    between atoms: C2_2  and  C5_5
REMARK    5  A    between atoms: C8_9  and  C13_18
REMARK    6  A    between atoms: C10_11  and  N4_14
REMARK    7  A    between atoms: N4_14  and  C11_15
REMARK    8  A    between atoms: C11_15  and  C12_16
REMARK    9  A    between atoms: C12_16  and  N5_17
REMARK                            x       y       z     vdW  Elec       q    Type
REMARK                         _______ _______ _______ _____ _____    ______ ____
ROOT
ATOM      1  C   UNL     1       0.707  -0.490  -1.238  0.00  0.00    +0.071 A 
ATOM      2  C   UNL     1       2.080  -0.469  -1.446  0.00  0.00    +0.073 A 
ATOM      3  C   UNL     1       2.323  -1.001  -2.704  0.00  0.00    +0.158 A 
ATOM      4  N   UNL     1       3.451  -1.212  -3.397  0.00  0.00    -0.224 NA
ATOM      5  C   UNL     1       3.418  -1.743  -4.600  0.00  0.00    +0.149 A 
ATOM      6  C   UNL     1       2.201  -2.098  -5.181  0.00  0.00    +0.076 A 
ATOM      7  C   UNL     1       1.039  -1.889  -4.488  0.00  0.00    +0.125 A 
ATOM      8  N   UNL     1       1.104  -1.335  -3.237  0.00  0.00    -0.200 N 
ATOM      9  N   UNL     1       0.124  -1.008  -2.294  0.00  0.00    -0.168 NA
ENDROOT
BRANCH   1  11
ATOM     10  C   UNL     1      -0.019   1.526   0.010  0.00  0.00    +0.017 C 
ATOM     11  C   UNL     1       0.002  -0.004   0.002  0.00  0.00    +0.006 C 
ATOM     12  C   UNL     1      -1.433  -0.534   0.013  0.00  0.00    +0.017 C 
ATOM     13  C   UNL     1       0.742  -0.511   1.242  0.00  0.00    +0.017 C 
ENDBRANCH   1  11
BRANCH   5  14
ATOM     14  C   UNL     1       4.703  -1.968  -5.355  0.00  0.00    +0.434 C 
ATOM     15  F   UNL     1       4.673  -1.246  -6.552  0.00  0.00    -0.164 F 
ATOM     16  F   UNL     1       4.845  -3.332  -5.636  0.00  0.00    -0.164 F 
ATOM     17  F   UNL     1       5.783  -1.538  -4.576  0.00  0.00    -0.164 F 
ENDBRANCH   5  14
BRANCH   7  18
ATOM     18  N   UNL     1      -0.177  -2.231  -5.040  0.00  0.00    -0.324 N 
ATOM     19  H   UNL     1      -0.995  -2.079  -4.542  0.00  0.00    +0.148 HD
BRANCH  18  20
ATOM     20  C   UNL     1      -0.233  -2.823  -6.379  0.00  0.00    +0.153 C 
BRANCH  20  21
ATOM     21  C   UNL     1      -1.690  -3.105  -6.751  0.00  0.00    +0.146 C 
BRANCH  21  22
ATOM     22  N   UNL     1      -1.746  -3.699  -8.093  0.00  0.00    +0.220 N 
ATOM     23  H   UNL     1      -1.347  -3.057  -8.762  0.00  0.00    +0.199 HD
ATOM     24  H   UNL     1      -2.707  -3.885  -8.339  0.00  0.00    +0.199 HD
ATOM     25  H   UNL     1      -1.224  -4.562  -8.102  0.00  0.00    +0.199 HD
ENDBRANCH  21  22
ENDBRANCH  20  21
ENDBRANCH  18  20
ENDBRANCH   7  18
TORSDOF 6
