REMARK  Name = ZINC69770347
REMARK  10 active torsions:
REMARK  status: ('A' for Active; 'I' for Inactive)
REMARK    1  A    between atoms: C1_1  and  C2_2
REMARK    2  A    between atoms: C2_2  and  C3_3
REMARK    3  A    between atoms: C2_2  and  C4_4
REMARK    4  A    between atoms: C2_2  and  C5_5
REMARK    5  A    between atoms: C5_5  and  C6_6
REMARK    6  A    between atoms: C5_5  and  O3_22
REMARK    7  A    between atoms: C6_6  and  N1_7
REMARK    8  A    between atoms: C11_13  and  C12_15
REMARK    9  A    between atoms: C12_15  and  C13_16
REMARK   10  A    between atoms: C13_16  and  C14_17
REMARK                            x       y       z     vdW  Elec       q    Type
REMARK                         _______ _______ _______ _____ _____    ______ ____
ROOT
ATOM      1  N   UNL     1       2.695  -0.378  -2.570  0.00  0.00    -0.297 NA
ATOM      2  C   UNL     1       2.728  -1.841  -2.690  0.00  0.00    +0.103 C 
ATOM      3  C   UNL     1       3.125  -2.225  -4.120  0.00  0.00    +0.123 C 
ATOM      4  N   UNL     1       4.386  -1.546  -4.452  0.00  0.00    -0.299 N 
ATOM      5  C   UNL     1       5.433  -2.235  -4.949  0.00  0.00    +0.216 C 
ATOM      6  O   UNL     1       5.341  -3.431  -5.128  0.00  0.00    -0.276 OA
ATOM      7  C   UNL     1       4.476  -0.095  -4.228  0.00  0.00    +0.123 C 
ATOM      8  C   UNL     1       4.025   0.205  -2.794  0.00  0.00    +0.103 C 
ENDROOT
BRANCH   1   9
ATOM      9  C   UNL     1       2.154   0.032  -1.268  0.00  0.00    +0.116 C 
BRANCH   9  10
ATOM     10  C   UNL     1       1.667   1.480  -1.350  0.00  0.00    +0.134 C 
BRANCH  10  12
ATOM     11  C   UNL     1       2.216   1.802   1.066  0.00  0.00    +0.013 C 
ATOM     12  C   UNL     1       1.114   1.911   0.010  0.00  0.00    -0.011 C 
ATOM     13  C   UNL     1       0.628   3.359  -0.073  0.00  0.00    +0.013 C 
ATOM     14  C   UNL     1      -0.054   1.002   0.396  0.00  0.00    +0.013 C 
ENDBRANCH  10  12
BRANCH  10  15
ATOM     15  O   UNL     1       0.638   1.582  -2.337  0.00  0.00    -0.390 OA
ATOM     16  H   UNL     1      -0.135   1.031  -2.156  0.00  0.00    +0.210 HD
ENDBRANCH  10  15
ENDBRANCH   9  10
ENDBRANCH   1   9
BRANCH   5  17
ATOM     17  C   UNL     1       6.716  -1.519  -5.283  0.00  0.00    +0.098 C 
BRANCH  17  18
ATOM     18  C   UNL     1       7.734  -2.523  -5.826  0.00  0.00    +0.041 C 
BRANCH  18  19
ATOM     19  C   UNL     1       9.037  -1.796  -6.165  0.00  0.00    +0.119 C 
ATOM     20  C   UNL     1      10.112  -2.810  -6.632  0.00  0.00    +0.034 C 
ATOM     21  C   UNL     1      11.024  -1.895  -7.494  0.00  0.00    +0.031 C 
ATOM     22  C   UNL     1      10.010  -0.908  -8.111  0.00  0.00    +0.160 C 
ATOM     23  O   UNL     1       8.840  -0.914  -7.281  0.00  0.00    -0.377 OA
ENDBRANCH  18  19
ENDBRANCH  17  18
ENDBRANCH   5  17
TORSDOF 7
