REMARK  Name = ZINC68966127
REMARK  10 active torsions:
REMARK  status: ('A' for Active; 'I' for Inactive)
REMARK    1  A    between atoms: C1_1  and  C2_2
REMARK    2  A    between atoms: C7_7  and  C8_8
REMARK    3  A    between atoms: N1_10  and  C9_11
REMARK    4  A    between atoms: C9_11  and  C10_12
REMARK    5  A    between atoms: N2_14  and  C11_15
REMARK    6  A    between atoms: C11_15  and  C12_16
REMARK    7  A    between atoms: C12_16  and  N3_17
REMARK    8  A    between atoms: C13_18  and  C14_20
REMARK    9  A    between atoms: C14_20  and  C15_21
REMARK   10  A    between atoms: C14_20  and  C16_22
REMARK                            x       y       z     vdW  Elec       q    Type
REMARK                         _______ _______ _______ _____ _____    ______ ____
ROOT
ATOM      1  C   UNL     1       0.825  -0.915   6.011  0.00  0.00    +0.230 C 
ATOM      2  N   UNL     1       0.963  -0.474   7.277  0.00  0.00    -0.313 N 
ATOM      3  H   UNL     1       0.904   0.475   7.469  0.00  0.00    +0.149 HD
ATOM      4  O   UNL     1       0.899  -2.101   5.770  0.00  0.00    -0.274 OA
ENDROOT
BRANCH   1   5
ATOM      5  C   UNL     1       0.578   0.067   4.894  0.00  0.00    +0.200 C 
BRANCH   5   7
ATOM      6  C   UNL     1       0.242   0.021   2.481  0.00  0.00    +0.245 C 
ATOM      7  N   UNL     1       0.465  -0.656   3.625  0.00  0.00    -0.303 N 
ATOM      8  H   UNL     1       0.551  -1.622   3.607  0.00  0.00    +0.150 HD
ATOM      9  O   UNL     1       0.135   1.232   2.503  0.00  0.00    -0.270 OA
BRANCH   6  16
ATOM     10  C   UNL     1      -0.511   1.452   0.082  0.00  0.00    +0.044 C 
ATOM     11  C   UNL     1      -0.234  -0.028   0.036  0.00  0.00    -0.038 A 
ATOM     12  C   UNL     1      -0.334  -0.714  -1.157  0.00  0.00    +0.004 A 
ATOM     13  C   UNL     1      -0.080  -2.073  -1.200  0.00  0.00    +0.000 A 
ATOM     14  C   UNL     1       0.275  -2.754  -0.049  0.00  0.00    +0.001 A 
ATOM     15  C   UNL     1       0.378  -2.080   1.150  0.00  0.00    +0.013 A 
ATOM     16  C   UNL     1       0.128  -0.708   1.200  0.00  0.00    +0.040 A 
ENDBRANCH   6  16
ENDBRANCH   5   7
ENDBRANCH   1   5
BRANCH   2  17
ATOM     17  C   UNL     1       1.203  -1.428   8.362  0.00  0.00    +0.123 C 
BRANCH  17  18
ATOM     18  C   UNL     1       1.321  -0.673   9.688  0.00  0.00    +0.123 C 
BRANCH  18  19
ATOM     19  N   UNL     1       1.561  -1.628  10.773  0.00  0.00    -0.314 N 
ATOM     20  H   UNL     1       1.620  -2.576  10.581  0.00  0.00    +0.149 HD
ATOM     21  C   UNL     1       1.699  -1.187  12.040  0.00  0.00    +0.216 C 
ATOM     22  O   UNL     1       1.625  -0.001  12.280  0.00  0.00    -0.276 OA
BRANCH  21  23
ATOM     23  C   UNL     1       1.946  -2.168  13.156  0.00  0.00    +0.069 C 
ATOM     24  C   UNL     1       2.064  -1.414  14.482  0.00  0.00    +0.017 C 
ATOM     25  C   UNL     1       3.244  -2.932  12.887  0.00  0.00    +0.017 C 
ENDBRANCH  21  23
ENDBRANCH  18  19
ENDBRANCH  17  18
ENDBRANCH   2  17
TORSDOF 7
