REMARK  Name = ZINC00205726
REMARK  8 active torsions:
REMARK  status: ('A' for Active; 'I' for Inactive)
REMARK    1  A    between atoms: C1_1  and  C2_2
REMARK    2  A    between atoms: C2_2  and  C3_3
REMARK    3  A    between atoms: C6_6  and  C7_8
REMARK    4  A    between atoms: N1_12  and  C14_21
REMARK    5  A    between atoms: N2_15  and  C11_16
REMARK    6  A    between atoms: C11_16  and  C12_17
REMARK    7  A    between atoms: C12_17  and  O3_19
REMARK    8  A    between atoms: O3_19  and  C13_20
REMARK                            x       y       z     vdW  Elec       q    Type
REMARK                         _______ _______ _______ _____ _____    ______ ____
ROOT
ATOM      1  C   UNL     1       2.289   1.352  -0.034  0.00  0.00    +0.043 C 
ATOM      2  C   UNL     1       3.371   2.177  -0.118  0.00  0.00    +0.100 C 
ATOM      3  C   UNL     1       4.735   1.791  -0.226  0.00  0.00    +0.266 C 
ATOM      4  N   UNL     1       5.462   2.924  -0.281  0.00  0.00    -0.251 N 
ATOM      5  C   UNL     1       6.921   2.987  -0.397  0.00  0.00    +0.140 C 
ATOM      6  C   UNL     1       4.644   3.988  -0.216  0.00  0.00    +0.147 C 
ATOM      7  S   UNL     1       5.152   5.622  -0.254  0.00  0.00    -0.018 S 
ATOM      8  O   UNL     1       5.165   0.652  -0.261  0.00  0.00    -0.268 OA
ATOM      9  N   UNL     1       3.365   3.578  -0.121  0.00  0.00    -0.267 N 
ENDROOT
BRANCH   1  13
ATOM     10  C   UNL     1      -0.986   2.854   1.849  0.00  0.00    -0.010 A 
ATOM     11  C   UNL     1      -1.210   2.459   0.569  0.00  0.00    +0.012 A 
ATOM     12  C   UNL     1      -0.174   1.930  -0.161  0.00  0.00    +0.016 A 
ATOM     13  C   UNL     1       1.062   1.844   0.471  0.00  0.00    +0.014 A 
ATOM     14  S   UNL     1       0.697   2.513   2.084  0.00  0.00    -0.094 S 
BRANCH  10  16
ATOM     15  C   UNL     1      -2.629   2.332   3.632  0.00  0.00    +0.009 C 
ATOM     16  C   UNL     1      -1.964   3.451   2.828  0.00  0.00    +0.039 C 
ENDBRANCH  10  16
ENDBRANCH   1  13
BRANCH   9  17
ATOM     17  C   UNL     1       2.183   4.439  -0.033  0.00  0.00    +0.233 C 
BRANCH  17  18
ATOM     18  C   UNL     1       1.955   4.834   1.403  0.00  0.00    +0.325 C 
ATOM     19  O   UNL     1       2.693   4.424   2.267  0.00  0.00    -0.249 OA
BRANCH  18  20
ATOM     20  O   UNL     1       0.930   5.640   1.723  0.00  0.00    -0.467 OA
ATOM     21  C   UNL     1       0.770   5.979   3.126  0.00  0.00    +0.280 C 
ENDBRANCH  18  20
ENDBRANCH  17  18
ENDBRANCH   9  17
TORSDOF 5
